@<TRIPOS>MOLECULE
FMM
40 44 0 0 0
SMALL
NO_CHARGES

@<TRIPOS>ATOM
     1 C1          22.6040    34.4870    31.1410 C.ar     1 LIG 0.0000
     2 S2          24.0360    33.4650    31.3500 S.2      1 LIG 0.0000
     3 O3          25.0530    34.2040    32.0670 O.2      1 LIG 0.0000
     4 O4          24.5430    33.0770    30.0530 O.2      1 LIG 0.0000
     5 C5          23.5870    31.9800    32.2910 C.ar     1 LIG 0.0000
     6 C6          22.0610    31.8360    32.3240 C.ar     1 LIG 0.0000
     7 N7          21.5690    32.1840    33.6650 N.ar     1 LIG 0.0000
     8 C8          20.9140    31.0190    34.2650 C.ar     1 LIG 0.0000
     9 C9          19.4160    31.2080    34.2230 C.ar     1 LIG 0.0000
    10 C10         18.6740    30.9770    33.1210 C.ar     1 LIG 0.0000
    11 C11         17.4450    31.2370    33.4210 C.ar     1 LIG 0.0000
    12 C12         17.4090    31.6450    34.7310 C.ar     1 LIG 0.0000
    13 O13         18.6550    31.6530    35.3630 O.ar     1 LIG 0.0000
    14 C14         16.1760    32.0580    35.4070 C.ar     1 LIG 0.0000
    15 C15         14.9580    31.9860    34.7350 C.ar     1 LIG 0.0000
    16 C16         13.8070    32.4020    35.3590 C.ar     1 LIG 0.0000
    17 C17         13.8490    32.8900    36.6640 C.ar     1 LIG 0.0000
    18 N18         12.6830    33.3050    37.2760 N.ar     1 LIG 0.0000
    19 C19         12.7080    33.7900    38.5680 C.ar     1 LIG 0.0000
    20 N20         13.8990    33.8630    39.2600 N.ar     1 LIG 0.0000
    21 C21         15.0770    33.4520    38.6680 C.ar     1 LIG 0.0000
    22 N22         16.2820    33.5270    39.3660 N.ar     1 LIG 0.0000
    23 C23         16.3320    33.8430    40.7350 C.ar     1 LIG 0.0000
    24 C24         17.1180    34.9090    41.1780 C.ar     1 LIG 0.0000
    25 C25         17.1640    35.2150    42.5350 C.ar     1 LIG 0.0000
    26 C26         16.4280    34.4570    43.4380 C.ar     1 LIG 0.0000
    27 O27         16.4460    34.7470    44.8280 O.2      1 LIG 0.0000
    28 C28         17.0650    36.0020    45.1430 C.ar     1 LIG 0.0000
    29 C29         16.0850    37.1810    44.9840 C.ar     1 LIG 0.0000
    30 C30         16.5190    38.4620    45.2460 C.ar     1 LIG 0.0000
    31 C31         15.6530    39.5270    45.1020 C.ar     1 LIG 0.0000
    32 C32         14.3540    39.3120    44.6930 C.ar     1 LIG 0.0000
    33 C33         13.9160    38.0360    44.4290 C.ar     1 LIG 0.0000
    34 F34         12.6790    37.8370    44.0350 F        1 LIG 0.0000
    35 C35         14.7720    36.9660    44.5730 C.ar     1 LIG 0.0000
    36 C36         15.6650    33.4150    42.9990 C.ar     1 LIG 0.0000
    37 CL3         14.7840    32.5140    44.1280 CL       1 LIG 0.0000
    38 C38         15.6070    33.0980    41.6600 C.ar     1 LIG 0.0000
    39 C39         15.0530    32.9590    37.3490 C.ar     1 LIG 0.0000
    40 C40         16.2200    32.5450    36.7310 C.ar     1 LIG 0.0000
@<TRIPOS>BOND
     1    1    2 1
     2    2    3 2
     3    2    4 2
     4    2    5 1
     5    5    6 1
     6    6    7 1
     7    7    8 1
     8    8    9 1
     9    9   10 2
    10    9   13 1
    11   10   11 1
    12   11   12 2
    13   12   13 1
    14   12   14 1
    15   14   15 1
    16   14   40 2
    17   15   16 2
    18   16   17 1
    19   17   18 2
    20   17   39 1
    21   18   19 1
    22   19   20 2
    23   20   21 1
    24   21   22 1
    25   21   39 2
    26   22   23 1
    27   23   24 2
    28   23   38 1
    29   24   25 1
    30   25   26 2
    31   26   27 1
    32   26   36 1
    33   27   28 1
    34   28   29 1
    35   29   30 2
    36   29   35 1
    37   30   31 1
    38   31   32 2
    39   32   33 1
    40   33   34 1
    41   33   35 2
    42   36   37 1
    43   36   38 2
    44   39   40 1
