@<TRIPOS>MOLECULE
03P
38 41 0 0 0
SMALL
NO_CHARGES

@<TRIPOS>ATOM
     1 N1          14.7340    33.5590    13.1610 N.ar     1 LIG 0.0000
     2 N3          20.2250    35.7750    15.3950 N.ar     1 LIG 0.0000
     3 C4          15.8900    35.0340    17.2350 C.ar     1 LIG 0.0000
     4 C5          14.5180    34.8540    17.0580 C.ar     1 LIG 0.0000
     5 C6          18.0730    34.7880    16.0540 C.ar     1 LIG 0.0000
     6 C7          18.7830    36.0320    15.5310 C.ar     1 LIG 0.0000
     7 C8          20.7150    35.0010    14.4070 C.ar     1 LIG 0.0000
     8 C10         17.2240    33.5270    11.8350 C.ar     1 LIG 0.0000
     9 C13         17.5500    32.9210     9.0980 C.ar     1 LIG 0.0000
    10 C15         18.1350    32.5430    11.4220 C.ar     1 LIG 0.0000
    11 C17         18.4040    30.7430     6.4860 C.ar     1 LIG 0.0000
    12 C20         16.0480    29.3940     7.1640 C.ar     1 LIG 0.0000
    13 C21         16.2660    30.6950     7.6250 C.ar     1 LIG 0.0000
    14 C22         14.8020    28.6230     7.5000 C.ar     1 LIG 0.0000
    15 C24         24.1210    33.2280    14.0430 C.ar     1 LIG 0.0000
    16 F2          13.8670    29.3560     8.0560 F        1 LIG 0.0000
    17 F           14.2830    28.1180     6.3950 F        1 LIG 0.0000
    18 F1          15.1020    27.6320     8.3300 F        1 LIG 0.0000
    19 C19         17.0120    28.7820     6.3480 C.ar     1 LIG 0.0000
    20 C18         18.1880    29.4520     6.0170 C.ar     1 LIG 0.0000
    21 C16         17.4560    31.3660     7.3000 C.ar     1 LIG 0.0000
    22 O1          17.6880    32.6400     7.7450 O.2      1 LIG 0.0000
    23 C12         16.6540    33.8950     9.5210 C.ar     1 LIG 0.0000
    24 CL          15.6760    34.7660     8.3190 CL       1 LIG 0.0000
    25 C11         16.4760    34.2030    10.8620 C.ar     1 LIG 0.0000
    26 C14         18.3170    32.2500    10.0520 C.ar     1 LIG 0.0000
    27 N4          17.0810    33.8100    13.1800 N.ar     1 LIG 0.0000
    28 C1          15.8750    33.8860    13.8120 C.ar     1 LIG 0.0000
    29 C           13.5190    33.6450    13.7380 C.ar     1 LIG 0.0000
    30 C3          15.7330    34.3090    15.1460 C.ar     1 LIG 0.0000
    31 C2          14.4750    34.4120    15.7050 C.ar     1 LIG 0.0000
    32 N           13.3710    34.0640    15.0050 N.ar     1 LIG 0.0000
    33 N2          16.5930    34.7400    16.1000 N.ar     1 LIG 0.0000
    34 O           20.0140    34.4420    13.5830 O.2      1 LIG 0.0000
    35 C9          22.2200    34.8250    14.3240 C.ar     1 LIG 0.0000
    36 C23         22.6070    33.3860    13.9560 C.ar     1 LIG 0.0000
    37 O2          22.0200    32.5000    14.9190 O.2      1 LIG 0.0000
    38 C25         22.1470    32.9560    12.5610 C.ar     1 LIG 0.0000
@<TRIPOS>BOND
     1    1   29 2
     2    1   28 1
     3    7    2 1
     4    2    6 1
     5   33    3 1
     6    4    3 2
     7   31    4 1
     8    6    5 1
     9    5   33 1
    10   34    7 2
    11   35    7 1
    12   25    8 2
    13   10    8 1
    14    8   27 1
    15   22    9 1
    16    9   23 2
    17    9   26 1
    18   26   10 2
    19   20   11 2
    20   11   21 1
    21   19   12 2
    22   12   14 1
    23   12   13 1
    24   21   13 2
    25   17   14 1
    26   14   16 1
    27   14   18 1
    28   36   15 1
    29   20   19 1
    30   21   22 1
    31   24   23 1
    32   23   25 1
    33   27   28 1
    34   28   30 2
    35   29   32 1
    36   30   31 1
    37   30   33 1
    38   32   31 2
    39   36   35 1
    40   38   36 1
    41   36   37 1
