@<TRIPOS>MOLECULE
0UN
35 38 0 0 0
SMALL
NO_CHARGES

@<TRIPOS>ATOM
     1 CAT        -12.7040    12.7700    33.5380 C.ar     1 LIG 0.0000
     2 CAR        -13.8650    11.9900    33.0040 C.ar     1 LIG 0.0000
     3 NBN        -15.0720    12.6730    33.3920 N.ar     1 LIG 0.0000
     4 CAB        -16.1940    11.8260    33.0430 C.ar     1 LIG 0.0000
     5 CAS        -15.1510    13.8390    32.5500 C.ar     1 LIG 0.0000
     6 CAU        -14.1110    14.8060    33.0390 C.ar     1 LIG 0.0000
     7 NBO        -12.8320    14.1350    33.1020 N.ar     1 LIG 0.0000
     8 CBH        -11.7190    14.8480    32.8180 C.ar     1 LIG 0.0000
     9 CAO        -10.4920    14.2520    32.8590 C.ar     1 LIG 0.0000
    10 CBK         -9.4010    15.0040    32.5670 C.ar     1 LIG 0.0000
    11 OBA         -8.1850    14.5160    32.5810 O.2      1 LIG 0.0000
    12 CAA         -8.3950    13.2470    32.1080 C.ar     1 LIG 0.0000
    13 CAK        -11.8470    16.1620    32.4950 C.ar     1 LIG 0.0000
    14 CAL        -10.7340    16.8940    32.2060 C.ar     1 LIG 0.0000
    15 CBJ         -9.5290    16.2870    32.2510 C.ar     1 LIG 0.0000
    16 NAZ         -8.4470    16.9100    31.9940 N.ar     1 LIG 0.0000
    17 C2          -8.5260    17.9300    31.2030 C.ar     1 LIG 0.0000
    18 N3          -9.6970    18.2640    30.6770 N.ar     1 LIG 0.0000
    19 N1          -7.4150    18.5880    30.9610 N.ar     1 LIG 0.0000
    20 C6          -7.4230    19.6130    30.1830 C.ar     1 LIG 0.0000
    21 C5          -8.6020    19.9830    29.6280 C.ar     1 LIG 0.0000
    22 CL5         -8.6200    21.3210    28.6100 CL       1 LIG 0.0000
    23 C4          -9.7490    19.3030    29.8780 C.ar     1 LIG 0.0000
    24 OBB        -10.8740    19.7120    29.3070 O.2      1 LIG 0.0000
    25 CBG        -12.0030    19.1590    29.7520 C.ar     1 LIG 0.0000
    26 CAN        -12.4640    19.4790    31.0010 C.ar     1 LIG 0.0000
    27 CAJ        -12.7120    18.2780    28.9890 C.ar     1 LIG 0.0000
    28 CAH        -13.8730    17.7240    29.4740 C.ar     1 LIG 0.0000
    29 CAI        -14.3370    18.0470    30.7330 C.ar     1 LIG 0.0000
    30 CBF        -13.6220    18.9340    31.5000 C.ar     1 LIG 0.0000
    31 NAY        -13.9850    19.2980    32.7020 N.ar     1 LIG 0.0000
    32 CBD        -15.1660    19.0370    33.2070 C.ar     1 LIG 0.0000
    33 OAE        -16.0410    18.4310    32.6170 O.2      1 LIG 0.0000
    34 CAQ        -15.3880    19.6030    34.6070 C.ar     1 LIG 0.0000
    35 CAP        -15.5450    18.5290    35.6780 C.ar     1 LIG 0.0000
@<TRIPOS>BOND
     1    2    1 1
     2    2    3 1
     3    4    3 1
     4    5    3 1
     5    5    6 1
     6    6    7 1
     7    7    1 1
     8    8    7 1
     9    8    9 1
    10   10    9 2
    11   10   11 1
    12   12   11 1
    13   13    8 2
    14   14   13 1
    15   14   15 2
    16   15   10 1
    17   16   15 1
    18   17   16 1
    19   18   17 2
    20   19   17 1
    21   20   19 2
    22   21   20 1
    23   21   23 2
    24   22   21 1
    25   23   18 1
    26   24   23 1
    27   24   25 1
    28   25   26 1
    29   26   30 2
    30   27   25 2
    31   27   28 1
    32   28   29 2
    33   29   30 1
    34   30   31 1
    35   31   32 1
    36   32   34 1
    37   33   32 2
    38   34   35 2
