@<TRIPOS>MOLECULE
0WM
34 37 0 0 0
SMALL
NO_CHARGES

@<TRIPOS>ATOM
     1 C1          56.8870     2.4590     1.3780 C.ar     1 LIG 0.0000
     2 N2          57.9630     1.6020     1.3820 N.ar     1 LIG 0.0000
     3 N3          57.1150     3.8130     1.4960 N.ar     1 LIG 0.0000
     4 C4          59.2640     2.0680     1.5140 C.ar     1 LIG 0.0000
     5 C5          58.4000     4.2990     1.6240 C.ar     1 LIG 0.0000
     6 C6          59.5070     3.4420     1.6290 C.ar     1 LIG 0.0000
     7 C7          60.9530     5.3940     1.8620 C.ar     1 LIG 0.0000
     8 C8          60.7890     4.0060     1.7540 C.ar     1 LIG 0.0000
     9 C9          59.8360     6.2300     1.8670 C.ar     1 LIG 0.0000
    10 C10         58.5580     5.6700     1.7430 C.ar     1 LIG 0.0000
    11 N11         60.3060     1.1120     1.5710 N.ar     1 LIG 0.0000
    12 C12         58.8830    -2.3590     2.0130 C.ar     1 LIG 0.0000
    13 C13         60.0380    -3.1070     1.8410 C.ar     1 LIG 0.0000
    14 C14         58.9220    -0.9720     1.9510 C.ar     1 LIG 0.0000
    15 C15         61.2320    -2.4530     1.6120 C.ar     1 LIG 0.0000
    16 C16         60.1320    -0.3040     1.7140 C.ar     1 LIG 0.0000
    17 C17         61.2800    -1.0700     1.5480 C.ar     1 LIG 0.0000
    18 F18         60.0180    -4.4380     1.8940 F        1 LIG 0.0000
    19 CL1         57.3900    -3.1570     2.3180 CL       1 LIG 0.0000
    20 O20         60.0450     7.5850     1.9890 O.2      1 LIG 0.0000
    21 C21         59.0180     8.5870     1.9930 C.ar     1 LIG 0.0000
    22 C22         59.6160    10.0030     2.0510 C.ar     1 LIG 0.0000
    23 O23         59.4570    10.5370     3.3710 O.2      1 LIG 0.0000
    24 C24         58.8260     9.5360     4.1610 C.ar     1 LIG 0.0000
    25 C25         58.1310     8.5840     3.2120 C.ar     1 LIG 0.0000
    26 N26         62.2080     6.0530     2.0140 N.ar     1 LIG 0.0000
    27 C27         63.5120     5.5660     2.0380 C.ar     1 LIG 0.0000
    28 C28         64.5890     6.5730     2.2730 C.ar     1 LIG 0.0000
    29 O29         63.7630     4.3860     1.9080 O.2      1 LIG 0.0000
    30 C30         65.8770     6.2280     2.4670 C.ar     1 LIG 0.0000
    31 C31         66.8930     7.3430     2.7380 C.ar     1 LIG 0.0000
    32 N32         68.2800     7.1730     2.2210 N.ar     1 LIG 0.0000
    33 C33         68.4710     6.0740     1.2260 C.ar     1 LIG 0.0000
    34 C34         68.8090     8.4550     1.6750 C.ar     1 LIG 0.0000
@<TRIPOS>BOND
     1    1    2 2
     2    1    3 1
     3    2    4 1
     4    3    5 2
     5    4   11 1
     6    4    6 2
     7    5    6 1
     8    5   10 1
     9    6    8 1
    10    8    7 2
    11    7    9 1
    12    7   26 1
    13   10    9 2
    14    9   20 1
    15   11   16 1
    16   13   12 2
    17   14   12 1
    18   12   19 1
    19   15   13 1
    20   13   18 1
    21   16   14 2
    22   17   15 2
    23   17   16 1
    24   20   21 1
    25   21   22 1
    26   21   25 1
    27   22   23 1
    28   23   24 1
    29   25   24 1
    30   26   27 1
    31   29   27 2
    32   27   28 1
    33   28   30 2
    34   30   31 1
    35   32   31 1
    36   33   32 1
    37   34   32 1
