0WM
  CCTOOLS-0919241031

 59 62  0  0  1  0  0  0  0  0999 V2000
   -2.1140    3.2370    0.5330 C   0  0  0  0  0
   -2.5630    1.9920    0.5370 N   0  0  0  0  0
   -0.8370    3.5350    0.4860 N   0  0  0  0  0
   -1.7350    0.9560    0.4910 C   0  0  0  0  0
    0.0870    2.5630    0.4370 C   0  0  0  0  0
   -0.3450    1.2130    0.4390 C   0  0  0  0  0
    1.9400    0.4890    0.3400 C   0  0  0  0  0
    0.5990    0.1800    0.3890 C   0  0  0  0  0
    2.3630    1.8280    0.3390 C   0  0  0  0  0
    1.4570    2.8490    0.3870 C   0  0  0  0  0
   -2.2170   -0.3370    0.4960 N   0  0  0  0  0
   -5.7590    0.0160   -0.4280 C   0  0  0  0  0
   -6.3200   -1.0370    0.2770 C   0  0  0  0  0
   -4.3980    0.2490   -0.3580 C   0  0  0  0  0
   -5.5190   -1.8550    1.0560 C   0  0  0  0  0
   -3.5950   -0.5700    0.4230 C   0  0  0  0  0
   -4.1600   -1.6220    1.1330 C   0  0  0  0  0
   -7.6490   -1.2660    0.2030 F   0  0  0  0  0
   -6.7650    1.0400   -1.4050 CL  0  0  0  0  0
    3.6910    2.1110    0.2900 O   0  0  0  0  0
    4.0610    3.4910    0.3010 C   0  0  0  0  0
    4.0250    4.0820   -1.1250 C   0  0  0  0  0
    5.1610    4.9430   -1.2650 O   0  0  0  0  0
    5.9000    4.9850   -0.0340 C   0  0  0  0  0
    5.5550    3.6600    0.6910 C   0  0  0  0  0
    2.8890   -0.5390    0.2910 N   0  0  0  0  0
    2.5450   -1.7500   -0.1900 C   0  0  0  0  0
    3.5070   -2.8620   -0.1370 C   0  0  0  0  0
    1.4400   -1.9240   -0.6670 O   0  0  0  0  0
    3.1680   -4.0570   -0.6120 C   0  0  0  0  0
    4.1530   -5.1960   -0.5570 C   0  0  0  0  0
    3.5440   -6.3380    0.1390 N   0  0  0  0  0
    2.4190   -6.8850   -0.6320 C   0  0  0  0  0
    4.5440   -7.3770    0.4210 C   0  0  0  0  0
   -2.8310    4.0440    0.5670 H   0  0  0  0  0
    0.2770   -0.8510    0.3900 H   0  0  0  0  0
    1.7960    3.8750    0.3850 H   0  0  0  0  0
   -1.6010   -1.0840    0.5490 H   0  0  0  0  0
   -3.9610    1.0670   -0.9110 H   0  0  0  0  0
   -5.9580   -2.6750    1.6050 H   0  0  0  0  0
   -3.5360   -2.2600    1.7410 H   0  0  0  0  0
    3.4160    4.0580    0.9730 H   0  0  0  0  0
    4.0780    3.2780   -1.8590 H   0  0  0  0  0
    3.1080    4.6530   -1.2650 H   0  0  0  0  0
    6.9700    5.0380   -0.2360 H   0  0  0  0  0
    5.5860    5.8390    0.5670 H   0  0  0  0  0
    5.6710    3.7600    1.7700 H   0  0  0  0  0
    6.1560    2.8350    0.3080 H   0  0  0  0  0
    3.7930   -0.3800    0.6030 H   0  0  0  0  0
    4.4880   -2.7070    0.2870 H   0  0  0  0  0
    2.1870   -4.2120   -1.0350 H   0  0  0  0  0
    4.4240   -5.4910   -1.5710 H   0  0  0  0  0
    5.0470   -4.8780   -0.0210 H   0  0  0  0  0
    2.7750   -7.2190   -1.6060 H   0  0  0  0  0
    1.9870   -7.7290   -0.0940 H   0  0  0  0  0
    1.6620   -6.1130   -0.7660 H   0  0  0  0  0
    5.3310   -6.9620    1.0510 H   0  0  0  0  0
    4.0660   -8.2100    0.9360 H   0  0  0  0  0
    4.9760   -7.7290   -0.5160 H   0  0  0  0  0
  1  2  2  0  0  0
  1  3  1  0  0  0
  1 35  1  0  0  0
  2  4  1  0  0  0
  3  5  2  0  0  0
  4 11  1  0  0  0
  4  6  2  0  0  0
  5  6  1  0  0  0
  5 10  1  0  0  0
  6  8  1  0  0  0
  7  9  1  0  0  0
  7 26  1  0  0  0
  8  7  2  0  0  0
  8 36  1  0  0  0
  9 20  1  0  0  0
 10  9  2  0  0  0
 10 37  1  0  0  0
 11 16  1  0  0  0
 11 38  1  0  0  0
 12 19  1  0  0  0
 13 12  2  0  0  0
 13 18  1  0  0  0
 14 12  1  0  0  0
 14 39  1  0  0  0
 15 13  1  0  0  0
 15 40  1  0  0  0
 16 14  2  0  0  0
 17 15  2  0  0  0
 17 16  1  0  0  0
 17 41  1  0  0  0
 20 21  1  0  0  0
 21 22  1  0  0  0
 21 25  1  0  0  0
 21 42  1  0  0  0
 22 23  1  0  0  0
 22 43  1  0  0  0
 22 44  1  0  0  0
 23 24  1  0  0  0
 24 45  1  0  0  0
 24 46  1  0  0  0
 25 24  1  0  0  0
 25 47  1  0  0  0
 25 48  1  0  0  0
 26 27  1  0  0  0
 26 49  1  0  0  0
 27 28  1  0  0  0
 28 30  2  0  0  0
 28 50  1  0  0  0
 29 27  2  0  0  0
 30 31  1  0  0  0
 30 51  1  0  0  0
 31 52  1  0  0  0
 31 53  1  0  0  0
 32 31  1  0  0  0
 33 32  1  0  0  0
 33 54  1  0  0  0
 33 55  1  0  0  0
 33 56  1  0  0  0
 34 32  1  0  0  0
 34 57  1  0  0  0
 34 58  1  0  0  0
 34 59  1  0  0  0
M  END
$$$$
