0WM
     RDKit          3D

 34 37  0  0  1  0  0  0  0  0999 V2000
   -2.1140    3.2370    0.5330 C   0  0  0  0  0  0  0  0  0  0  0  0
   -2.5630    1.9920    0.5370 N   0  0  0  0  0  0  0  0  0  0  0  0
   -0.8370    3.5350    0.4860 N   0  0  0  0  0  0  0  0  0  0  0  0
   -1.7350    0.9560    0.4910 C   0  0  0  0  0  0  0  0  0  0  0  0
    0.0870    2.5630    0.4370 C   0  0  0  0  0  0  0  0  0  0  0  0
   -0.3450    1.2130    0.4390 C   0  0  0  0  0  0  0  0  0  0  0  0
    1.9400    0.4890    0.3400 C   0  0  0  0  0  0  0  0  0  0  0  0
    0.5990    0.1800    0.3890 C   0  0  0  0  0  0  0  0  0  0  0  0
    2.3630    1.8280    0.3390 C   0  0  0  0  0  0  0  0  0  0  0  0
    1.4570    2.8490    0.3870 C   0  0  0  0  0  0  0  0  0  0  0  0
   -2.2170   -0.3370    0.4960 N   0  0  0  0  0  0  0  0  0  0  0  0
   -5.7590    0.0160   -0.4280 C   0  0  0  0  0  0  0  0  0  0  0  0
   -6.3200   -1.0370    0.2770 C   0  0  0  0  0  0  0  0  0  0  0  0
   -4.3980    0.2490   -0.3580 C   0  0  0  0  0  0  0  0  0  0  0  0
   -5.5190   -1.8550    1.0560 C   0  0  0  0  0  0  0  0  0  0  0  0
   -3.5950   -0.5700    0.4230 C   0  0  0  0  0  0  0  0  0  0  0  0
   -4.1600   -1.6220    1.1330 C   0  0  0  0  0  0  0  0  0  0  0  0
   -7.6490   -1.2660    0.2030 F   0  0  0  0  0  0  0  0  0  0  0  0
   -6.7650    1.0400   -1.4050 Cl  0  0  0  0  0  0  0  0  0  0  0  0
    3.6910    2.1110    0.2900 O   0  0  0  0  0  0  0  0  0  0  0  0
    4.0610    3.4910    0.3010 C   0  0  2  0  0  0  0  0  0  0  0  0
    4.0250    4.0820   -1.1250 C   0  0  0  0  0  0  0  0  0  0  0  0
    5.1610    4.9430   -1.2650 O   0  0  0  0  0  0  0  0  0  0  0  0
    5.9000    4.9850   -0.0340 C   0  0  0  0  0  0  0  0  0  0  0  0
    5.5550    3.6600    0.6910 C   0  0  0  0  0  0  0  0  0  0  0  0
    2.8890   -0.5390    0.2910 N   0  0  0  0  0  0  0  0  0  0  0  0
    2.5450   -1.7500   -0.1900 C   0  0  0  0  0  0  0  0  0  0  0  0
    3.5070   -2.8620   -0.1370 C   0  0  0  0  0  0  0  0  0  0  0  0
    1.4400   -1.9240   -0.6670 O   0  0  0  0  0  0  0  0  0  0  0  0
    3.1680   -4.0570   -0.6120 C   0  0  0  0  0  0  0  0  0  0  0  0
    4.1530   -5.1960   -0.5570 C   0  0  0  0  0  0  0  0  0  0  0  0
    3.5440   -6.3380    0.1390 N   0  0  0  0  0  0  0  0  0  0  0  0
    2.4190   -6.8850   -0.6320 C   0  0  0  0  0  0  0  0  0  0  0  0
    4.5440   -7.3770    0.4210 C   0  0  0  0  0  0  0  0  0  0  0  0
  1  2  2  0
  1  3  1  0
  2  4  1  0
  3  5  2  0
  4 11  1  0
  4  6  2  0
  5  6  1  0
  5 10  1  0
  6  8  1  0
  7  9  1  0
  7 26  1  0
  8  7  2  0
  9 20  1  0
 10  9  2  0
 11 16  1  0
 12 19  1  0
 13 12  2  0
 13 18  1  0
 14 12  1  0
 15 13  1  0
 16 14  2  0
 17 15  2  0
 17 16  1  0
 21 20  1  6
 21 22  1  0
 21 25  1  0
 22 23  1  0
 23 24  1  0
 25 24  1  0
 26 27  1  0
 27 28  1  0
 28 30  2  0
 29 27  2  0
 30 31  1  0
 32 31  1  0
 33 32  1  0
 34 32  1  0
M  END
$$$$
