1C9
     RDKit          3D

 33 36  0  0  0  0  0  0  0  0999 V2000
    0.6470    2.9360    0.1780 C   0  0  0  0  0  0  0  0  0  0  0  0
    0.2210    4.2600    0.3630 C   0  0  0  0  0  0  0  0  0  0  0  0
   -1.1200    4.5690    0.4010 C   0  0  0  0  0  0  0  0  0  0  0  0
   -2.0700    3.5510    0.2550 C   0  0  0  0  0  0  0  0  0  0  0  0
   -1.6390    2.2140    0.0690 C   0  0  0  0  0  0  0  0  0  0  0  0
   -0.2710    1.9190    0.0330 C   0  0  0  0  0  0  0  0  0  0  0  0
   -3.3880    3.8030    0.2920 N   0  0  0  0  0  0  0  0  0  0  0  0
   -4.2560    2.8300    0.1580 C   0  0  0  0  0  0  0  0  0  0  0  0
   -3.9010    1.5680   -0.0280 N   0  0  0  0  0  0  0  0  0  0  0  0
   -2.6250    1.2080   -0.0750 C   0  0  0  0  0  0  0  0  0  0  0  0
   -2.2680   -0.1130   -0.2590 N   0  0  0  0  0  0  0  0  0  0  0  0
   -3.2540   -1.1050   -0.2990 C   0  0  0  0  0  0  0  0  0  0  0  0
   -2.9950   -2.3630    0.2290 C   0  0  0  0  0  0  0  0  0  0  0  0
   -3.9690   -3.3430    0.1830 C   0  0  0  0  0  0  0  0  0  0  0  0
   -5.2010   -3.0700   -0.3880 C   0  0  0  0  0  0  0  0  0  0  0  0
   -5.4600   -1.8160   -0.9140 C   0  0  0  0  0  0  0  0  0  0  0  0
   -4.4900   -0.8340   -0.8700 C   0  0  0  0  0  0  0  0  0  0  0  0
   -6.1520   -4.0290   -0.4310 F   0  0  0  0  0  0  0  0  0  0  0  0
   -3.6470   -4.9170    0.8420 Cl  0  0  0  0  0  0  0  0  0  0  0  0
    1.1420    5.2490    0.5040 O   0  0  0  0  0  0  0  0  0  0  0  0
    0.6460    6.5760    0.6890 C   0  0  0  0  0  0  0  0  0  0  0  0
    2.0160    2.6450    0.1420 N   0  0  0  0  0  0  0  0  0  0  0  0
    2.4550    1.5480   -0.5060 C   0  0  0  0  0  0  0  0  0  0  0  0
    3.8760    1.1760   -0.4410 C   0  0  0  0  0  0  0  0  0  0  0  0
    4.3100    0.0930   -1.0810 C   0  0  0  0  0  0  0  0  0  0  0  0
    5.7660   -0.2890   -1.0140 C   0  0  0  0  0  0  0  0  0  0  0  0
    5.8890   -1.6710   -0.5320 N   0  0  0  0  0  0  0  0  0  0  0  0
    1.6760    0.8670   -1.1450 O   0  0  0  0  0  0  0  0  0  0  0  0
    7.2660   -2.1590   -0.6770 C   0  0  0  0  0  0  0  0  0  0  0  0
    7.3250   -3.6420   -0.3030 C   0  0  0  0  0  0  0  0  0  0  0  0
    6.8510   -3.8180    1.1420 C   0  0  0  0  0  0  0  0  0  0  0  0
    5.4320   -3.2580    1.2770 C   0  0  0  0  0  0  0  0  0  0  0  0
    5.4280   -1.7860    0.8580 C   0  0  0  0  0  0  0  0  0  0  0  0
  1  6  2  0
  1 22  1  0
  2  1  1  0
  3  4  1  0
  3  2  2  0
  4  5  1  0
  5  6  1  0
  5 10  2  0
  7  4  2  0
  7  8  1  0
  8  9  2  0
  9 10  1  0
 10 11  1  0
 11 12  1  0
 12 13  2  0
 12 17  1  0
 13 14  1  0
 14 19  1  0
 14 15  2  0
 15 18  1  0
 16 15  1  0
 17 16  2  0
 20  2  1  0
 21 20  1  0
 22 23  1  0
 23 24  1  0
 23 28  2  0
 24 25  2  0
 25 26  1  0
 26 27  1  0
 27 29  1  0
 27 33  1  0
 29 30  1  0
 30 31  1  0
 31 32  1  0
 32 33  1  0
M  END
$$$$
