@<TRIPOS>MOLECULE
1C9
33 36 0 0 0
SMALL
NO_CHARGES

@<TRIPOS>ATOM
     1 C1         -14.3000    40.6570    -4.7670 C.ar     1 LIG 0.0000
     2 C2         -14.5390    41.2800    -6.0390 C.ar     1 LIG 0.0000
     3 C3         -13.7220    42.3890    -6.4290 C.ar     1 LIG 0.0000
     4 C4         -12.6950    42.8880    -5.6020 C.ar     1 LIG 0.0000
     5 C5         -12.4660    42.2710    -4.3180 C.ar     1 LIG 0.0000
     6 C6         -13.2740    41.1620    -3.9220 C.ar     1 LIG 0.0000
     7 N7         -11.9610    43.9360    -6.0510 N.ar     1 LIG 0.0000
     8 C8         -10.9880    44.3930    -5.2360 C.ar     1 LIG 0.0000
     9 N9         -10.6830    43.9080    -4.0130 N.ar     1 LIG 0.0000
    10 C10        -11.4200    42.8420    -3.5400 C.ar     1 LIG 0.0000
    11 N14        -11.1260    42.3070    -2.2460 N.ar     1 LIG 0.0000
    12 C15        -10.5220    42.9920    -1.1610 C.ar     1 LIG 0.0000
    13 C16        -10.6580    44.4080    -0.9920 C.ar     1 LIG 0.0000
    14 C17        -10.0490    45.0740     0.0820 C.ar     1 LIG 0.0000
    15 C18         -9.2840    44.3440     1.0230 C.ar     1 LIG 0.0000
    16 C19         -9.1300    42.9410     0.8860 C.ar     1 LIG 0.0000
    17 C20         -9.7490    42.2680    -0.2040 C.ar     1 LIG 0.0000
    18 F21         -8.6910    44.9620     2.0550 F        1 LIG 0.0000
    19 CL         -10.2540    46.7790     0.2130 CL       1 LIG 0.0000
    20 O11        -15.5720    40.7230    -6.7870 O.2      1 LIG 0.0000
    21 C12        -15.9060    41.2710    -8.0650 C.ar     1 LIG 0.0000
    22 N13        -15.1010    39.5340    -4.4170 N.ar     1 LIG 0.0000
    23 C26        -14.5300    38.3100    -4.0280 C.ar     1 LIG 0.0000
    24 C24        -15.5840    37.2520    -3.7460 C.ar     1 LIG 0.0000
    25 C23        -14.9620    35.9000    -3.3560 C.ar     1 LIG 0.0000
    26 C25        -16.0660    34.9670    -2.8450 C.ar     1 LIG 0.0000
    27 N33        -15.4760    33.7800    -2.1240 N.ar     1 LIG 0.0000
    28 O27        -13.3250    38.0690    -3.9420 O.2      1 LIG 0.0000
    29 C30        -16.7150    32.8660    -2.1240 C.ar     1 LIG 0.0000
    30 C31        -16.5430    31.3350    -2.1240 C.ar     1 LIG 0.0000
    31 C32        -15.1310    30.7190    -2.1240 C.ar     1 LIG 0.0000
    32 C33        -13.8920    31.6340    -2.1240 C.ar     1 LIG 0.0000
    33 C34        -14.0640    33.1640    -2.1240 C.ar     1 LIG 0.0000
@<TRIPOS>BOND
     1    4    5 1
     2    5    6 2
     3    5   10 1
     4    8    9 1
     5   10   11 1
     6   12   13 2
     7   12   17 1
     8   14   19 1
     9   14   15 2
    10   17   16 2
    11   24   25 2
    12   23   24 1
    13   23   28 2
    14   16   15 1
    15    3    4 2
    16    3    2 1
    17   13   14 1
    18    1    6 1
    19    1   22 1
    20    2    1 2
    21   15   18 1
    22   21   20 1
    23   25   26 1
    24   26   27 1
    25    7    4 1
    26    7    8 2
    27    9   10 2
    28   11   12 1
    29   22   23 1
    30   20    2 1
    31   27   29 1
    32   27   33 1
    33   29   30 1
    34   30   31 1
    35   31   32 1
    36   32   33 1
