@<TRIPOS>MOLECULE
1E8
33 37 0 0 0
SMALL
NO_CHARGES

@<TRIPOS>ATOM
     1 N1         -11.8970   -20.0640    96.2940 N.ar     1 LIG 0.0000
     2 C2         -10.6990   -19.4910    95.8180 C.ar     1 LIG 0.0000
     3 N3         -10.6570   -18.0980    95.6680 N.ar     1 LIG 0.0000
     4 C4         -11.7590   -17.3740    95.9760 C.ar     1 LIG 0.0000
     5 C5         -12.9000   -17.9400    96.4280 C.ar     1 LIG 0.0000
     6 C6         -12.9520   -19.2850    96.5730 C.ar     1 LIG 0.0000
     7 CAA         -6.5230   -13.7940    91.5600 C.ar     1 LIG 0.0000
     8 NAB        -14.0740   -19.8500    97.0140 N.ar     1 LIG 0.0000
     9 OAC         -8.6180   -15.5710    92.3180 O.2      1 LIG 0.0000
    10 CAD         -7.6890   -13.3480    92.4520 C.ar     1 LIG 0.0000
    11 CAE        -22.4630   -17.7170    97.5730 C.ar     1 LIG 0.0000
    12 CAF        -22.0950   -16.3730    97.4670 C.ar     1 LIG 0.0000
    13 CAG        -21.5800   -18.6410    98.1460 C.ar     1 LIG 0.0000
    14 CAI        -20.8500   -15.9540    97.9330 C.ar     1 LIG 0.0000
    15 CAJ        -20.3270   -18.2210    98.6090 C.ar     1 LIG 0.0000
    16 CAK        -17.3290   -16.0750    97.0050 C.ar     1 LIG 0.0000
    17 CAL        -16.4860   -17.1440    98.9750 C.ar     1 LIG 0.0000
    18 CAM        -16.0580   -16.1840    96.4060 C.ar     1 LIG 0.0000
    19 CAN        -15.2270   -17.2490    98.3800 C.ar     1 LIG 0.0000
    20 CAO         -9.8380   -12.7580    95.6070 C.ar     1 LIG 0.0000
    21 CAP        -10.9480   -13.7250    96.1150 C.ar     1 LIG 0.0000
    22 CAQ         -9.8670   -12.6680    94.0780 C.ar     1 LIG 0.0000
    23 CAR        -10.8340   -15.0040    93.9210 C.ar     1 LIG 0.0000
    24 NAU        -13.0920   -15.7850    96.2780 N.ar     1 LIG 0.0000
    25 OAV        -18.7500   -16.4530    98.9480 O.2      1 LIG 0.0000
    26 CAW         -8.7370   -14.4310    92.7700 C.ar     1 LIG 0.0000
    27 CAY        -19.9580   -16.8770    98.4810 C.ar     1 LIG 0.0000
    28 CAZ        -17.5510   -16.5680    98.2850 C.ar     1 LIG 0.0000
    29 CBA        -15.0000   -16.8080    97.0820 C.ar     1 LIG 0.0000
    30 CBB        -13.7440   -16.8970    96.5950 C.ar     1 LIG 0.0000
    31 CBE        -10.8650   -15.1300    95.4450 C.ar     1 LIG 0.0000
    32 NBF        -11.9470   -16.0570    95.9090 N.ar     1 LIG 0.0000
    33 NBG         -9.7800   -14.0360    93.5260 N.ar     1 LIG 0.0000
@<TRIPOS>BOND
     1    2    1 2
     2    1    6 1
     3    3    2 1
     4    3    4 2
     5   32    4 1
     6    4    5 1
     7    5    6 2
     8    5   30 1
     9    6    8 1
    10    7   10 2
    11    9   26 2
    12   10   26 1
    13   12   11 2
    14   11   13 1
    15   12   14 1
    16   13   15 2
    17   14   27 2
    18   27   15 1
    19   18   16 2
    20   16   28 1
    21   28   17 2
    22   19   17 1
    23   18   29 1
    24   29   19 2
    25   22   20 1
    26   20   21 1
    27   31   21 1
    28   33   22 1
    29   33   23 1
    30   23   31 1
    31   32   24 1
    32   24   30 2
    33   28   25 1
    34   27   25 1
    35   26   33 1
    36   30   29 1
    37   31   32 1
