@<TRIPOS>MOLECULE
AQ4
 52 54 0 0 0
SMALL
GASTEIGER

@<TRIPOS>ATOM
      1 C          -7.4250    1.9760   -1.4710 C.1     1  UNL1       -0.1139
      2 C          -6.7870    1.0930   -1.0320 C.1     1  UNL1       -0.0696
      3 C          -6.0100    0.0160   -0.4960 C.ar    1  UNL1        0.0264
      4 C          -4.6220    0.1190   -0.4350 C.ar    1  UNL1       -0.0251
      5 C          -3.8760   -0.9280    0.0860 C.ar    1  UNL1        0.0335
      6 N          -2.4830   -0.8290    0.1500 N.pl3   1  UNL1       -0.2988
      7 C          -1.8860    0.3980    0.3650 C.ar    1  UNL1        0.1340
      8 C          -0.4800    0.5400    0.3170 C.ar    1  UNL1        0.0441
      9 C           0.3660   -0.5440    0.0510 C.ar    1  UNL1       -0.0038
     10 C           1.7180   -0.3550    0.0150 C.ar    1  UNL1        0.1628
     11 O           2.5380   -1.4080   -0.2420 O.3     1  UNL1       -0.4860
     12 C           1.9160   -2.6760   -0.4640 C.3     1  UNL1        0.1130
     13 C           2.9910   -3.7300   -0.7350 C.3     1  UNL1        0.0814
     14 O           3.7950   -3.9030    0.4330 O.3     1  UNL1       -0.3796
     15 C           4.8350   -4.8720    0.2850 C.3     1  UNL1        0.0366
     16 C           2.2700    0.9140    0.2410 C.ar    1  UNL1        0.1641
     17 O           3.6180    1.0780    0.1990 O.3     1  UNL1       -0.4860
     18 C           4.1190    2.3950    0.4370 C.3     1  UNL1        0.1130
     19 C           5.6460    2.3830    0.3500 C.3     1  UNL1        0.0814
     20 O           6.0450    2.0620   -0.9850 O.3     1  UNL1       -0.3796
     21 C           7.4600    2.0240   -1.1750 C.3     1  UNL1        0.0366
     22 C           1.4600    1.9970    0.5030 C.ar    1  UNL1        0.0098
     23 C           0.0710    1.8250    0.5450 C.ar    1  UNL1        0.0797
     24 N          -0.7620    2.8480    0.7970 N.ar    1  UNL1       -0.2352
     25 C          -2.0590    2.6560    0.8290 C.ar    1  UNL1        0.1187
     26 N          -2.6180    1.4760    0.6160 N.ar    1  UNL1       -0.2200
     27 C          -4.5130   -2.0740    0.5440 C.ar    1  UNL1       -0.0404
     28 C          -5.8900   -2.1760    0.4830 C.ar    1  UNL1       -0.0589
     29 C          -6.6420   -1.1380   -0.0280 C.ar    1  UNL1       -0.0462
     30 H          -7.9950    2.7660   -1.8640 H       1  UNL1        0.1232
     31 H          -4.1280    1.0110   -0.7920 H       1  UNL1        0.0648
     32 H          -1.9350   -1.6220    0.0440 H       1  UNL1        0.1536
     33 H          -0.0490   -1.5260   -0.1230 H       1  UNL1        0.0663
     34 H           1.3440   -2.9590    0.4200 H       1  UNL1        0.0720
     35 H           1.2490   -2.6080   -1.3220 H       1  UNL1        0.0720
     36 H           2.5140   -4.6770   -0.9920 H       1  UNL1        0.0593
     37 H           3.6190   -3.4040   -1.5640 H       1  UNL1        0.0593
     38 H           4.3970   -5.8420    0.0500 H       1  UNL1        0.0524
     39 H           5.5010   -4.5690   -0.5220 H       1  UNL1        0.0524
     40 H           5.3990   -4.9440    1.2150 H       1  UNL1        0.0524
     41 H           3.7180    3.0770   -0.3130 H       1  UNL1        0.0720
     42 H           3.8140    2.7260    1.4300 H       1  UNL1        0.0720
     43 H           6.0340    3.3660    0.6180 H       1  UNL1        0.0593
     44 H           6.0440    1.6360    1.0370 H       1  UNL1        0.0593
     45 H           7.8850    3.0000   -0.9390 H       1  UNL1        0.0524
     46 H           7.8950    1.2700   -0.5200 H       1  UNL1        0.0524
     47 H           7.6810    1.7740   -2.2130 H       1  UNL1        0.0524
     48 H           1.8930    2.9710    0.6760 H       1  UNL1        0.0677
     49 H          -2.7000    3.5010    1.0340 H       1  UNL1        0.1048
     50 H          -3.9310   -2.8890    0.9490 H       1  UNL1        0.0636
     51 H          -6.3800   -3.0700    0.8400 H       1  UNL1        0.0619
     52 H          -7.7170   -1.2210   -0.0740 H       1  UNL1        0.0630
@<TRIPOS>BOND
     1     1    30    1
     2     2     1    3
     3     3     2    1
     4     4     3   ar
     5     4    31    1
     6     5     4   ar
     7     6     5    1
     8     6     7    1
     9     6    32    1
    10     7    26   ar
    11     8     7   ar
    12     8    23   ar
    13     9     8   ar
    14     9    33    1
    15    10     9   ar
    16    10    16   ar
    17    11    10    1
    18    12    11    1
    19    12    34    1
    20    12    35    1
    21    13    12    1
    22    13    36    1
    23    13    37    1
    24    14    13    1
    25    14    15    1
    26    15    38    1
    27    15    39    1
    28    15    40    1
    29    16    22   ar
    30    17    16    1
    31    18    17    1
    32    18    41    1
    33    18    42    1
    34    19    18    1
    35    19    20    1
    36    19    43    1
    37    19    44    1
    38    21    20    1
    39    21    45    1
    40    21    46    1
    41    21    47    1
    42    22    23   ar
    43    22    48    1
    44    23    24   ar
    45    24    25   ar
    46    25    49    1
    47    26    25   ar
    48    27     5   ar
    49    27    28   ar
    50    27    50    1
    51    28    29   ar
    52    28    51    1
    53    29     3   ar
    54    29    52    1
