@<TRIPOS>MOLECULE
1WY
30 33 0 0 0
SMALL
NO_CHARGES

@<TRIPOS>ATOM
     1 C2          53.1820    -0.2120   -19.2310 C.ar     1 LIG 0.0000
     2 C3          52.5230     0.8140   -21.2840 C.ar     1 LIG 0.0000
     3 C5          53.4280    -0.0080   -21.9440 C.ar     1 LIG 0.0000
     4 C6          54.1940    -0.9250   -21.2540 C.ar     1 LIG 0.0000
     5 C8          52.2530     0.4500   -17.0070 C.ar     1 LIG 0.0000
     6 C11         50.8200     2.3410   -16.5080 C.ar     1 LIG 0.0000
     7 C12         50.9830     0.4840   -14.9700 C.ar     1 LIG 0.0000
     8 O14         52.4320    -1.3750   -15.5260 O.2      1 LIG 0.0000
     9 C15         51.9170    -2.3220   -14.5970 C.ar     1 LIG 0.0000
    10 C17         50.6250     4.6110   -17.6770 C.ar     1 LIG 0.0000
    11 C19         49.8520     5.8760   -17.7220 C.ar     1 LIG 0.0000
    12 C23         51.8320     2.4400   -23.1570 C.ar     1 LIG 0.0000
    13 C24         50.4530     2.2880   -21.4350 C.ar     1 LIG 0.0000
    14 C27         49.7600     2.0180   -20.2620 C.ar     1 LIG 0.0000
    15 C30         48.0480     3.5930   -20.9510 C.ar     1 LIG 0.0000
    16 CL1         53.6460     0.0600   -23.6260 CL       1 LIG 0.0000
    17 C22         51.6540     1.8140   -21.9310 C.ar     1 LIG 0.0000
    18 C28         48.5520     2.6780   -20.0210 C.ar     1 LIG 0.0000
    19 C29         48.7570     3.8550   -22.1250 C.ar     1 LIG 0.0000
    20 C26         49.9530     3.1920   -22.3420 C.ar     1 LIG 0.0000
    21 N25         50.7950     3.2740   -23.3780 N.ar     1 LIG 0.0000
    22 N1          52.4170     0.6820   -19.9270 N.ar     1 LIG 0.0000
    23 N4          54.0700    -1.0330   -19.8920 N.ar     1 LIG 0.0000
    24 N7          53.0990    -0.3220   -17.8420 N.ar     1 LIG 0.0000
    25 C10         51.8760    -0.1600   -15.8150 C.ar     1 LIG 0.0000
    26 C13         50.4590     1.7160   -15.3190 C.ar     1 LIG 0.0000
    27 C9          51.7230     1.7000   -17.3580 C.ar     1 LIG 0.0000
    28 N16         50.2460     3.6200   -16.7720 N.ar     1 LIG 0.0000
    29 O18         51.5540     4.4310   -18.4350 O.2      1 LIG 0.0000
    30 C20         50.7370     7.1310   -17.6870 C.ar     1 LIG 0.0000
@<TRIPOS>BOND
     1   16    3 1
     2   21   12 1
     3   21   20 1
     4   12   17 2
     5   20   19 2
     6   20   13 1
     7   19   15 1
     8    3    2 2
     9    3    4 1
    10   17   13 1
    11   17    2 1
    12   13   14 2
    13    2   22 1
    14    4   23 2
    15   15   18 2
    16   14   18 1
    17   22    1 2
    18   23    1 1
    19    1   24 1
    20   29   10 2
    21   24    5 1
    22   11   30 1
    23   11   10 1
    24   10   28 1
    25   27    5 2
    26   27    6 1
    27    5   25 1
    28   28    6 1
    29    6   26 2
    30   25    8 1
    31   25    7 2
    32    8    9 1
    33   26    7 1
