@<TRIPOS>MOLECULE
FMM
 66 70 0 0 0
SMALL
GASTEIGER

@<TRIPOS>ATOM
      1 C           3.0270    1.8080  -10.8750 C.3     1  UNL1        0.0000
      2 S           3.2190    0.4340   -9.7060 S.O2    1  UNL1        0.0000
      3 O           3.2560   -0.7870  -10.4310 O.2     1  UNL1        0.0000
      4 O           4.2670    0.7430   -8.7970 O.2     1  UNL1        0.0000
      5 C           1.6300    0.5590   -8.8390 C.3     1  UNL1        0.0000
      6 C           1.5470   -0.5290   -7.7680 C.3     1  UNL1        0.0000
      7 N           0.2610   -0.4290   -7.0660 N.3     1  UNL1        0.0000
      8 C           0.2460   -1.4960   -6.0570 C.3     1  UNL1        0.0000
      9 C          -1.0530   -1.4490   -5.2950 C.ar    1  UNL1        0.0000
     10 C          -2.1830   -2.1030   -5.6300 C.ar    1  UNL1        0.0000
     11 C          -3.1480   -1.7850   -4.6530 C.ar    1  UNL1        0.0000
     12 C          -2.5500   -0.9390   -3.7720 C.ar    1  UNL1        0.0000
     13 O          -1.2790   -0.7450   -4.1740 O.2     1  UNL1        0.0000
     14 C          -3.1840   -0.3390   -2.5800 C.ar    1  UNL1        0.0000
     15 C          -4.5130    0.1100   -2.6480 C.ar    1  UNL1        0.0000
     16 C          -5.1180    0.6650   -1.5650 C.ar    1  UNL1        0.0000
     17 C          -4.4130    0.7960   -0.3590 C.ar    1  UNL1        0.0000
     18 N          -4.9740    1.3390    0.7310 N.ar    1  UNL1        0.0000
     19 C          -4.2920    1.4490    1.8460 C.ar    1  UNL1        0.0000
     20 N          -3.0380    1.0440    1.9680 N.ar    1  UNL1        0.0000
     21 C          -2.3870    0.4930    0.9520 C.ar    1  UNL1        0.0000
     22 N          -1.0810    0.0740    1.0910 N.pl3   1  UNL1        0.0000
     23 C          -0.4620    0.1170    2.3460 C.ar    1  UNL1        0.0000
     24 C          -1.1990   -0.1450    3.4930 C.ar    1  UNL1        0.0000
     25 C          -0.5890   -0.1030    4.7310 C.ar    1  UNL1        0.0000
     26 C           0.7600    0.2010    4.8290 C.ar    1  UNL1        0.0000
     27 O           1.3610    0.2420    6.0490 O.3     1  UNL1        0.0000
     28 C           0.3550   -0.0670    7.0150 C.3     1  UNL1        0.0000
     29 C           0.9580   -0.0380    8.3960 C.ar    1  UNL1        0.0000
     30 C           0.9660    1.1380    9.1220 C.ar    1  UNL1        0.0000
     31 C           1.5190    1.1660   10.3880 C.ar    1  UNL1        0.0000
     32 C           2.0650    0.0180   10.9300 C.ar    1  UNL1        0.0000
     33 C           2.0590   -1.1600   10.2040 C.ar    1  UNL1        0.0000
     34 F           2.5920   -2.2830   10.7330 F       1  UNL1        0.0000
     35 C           1.4990   -1.1880    8.9380 C.ar    1  UNL1        0.0000
     36 C           1.4980    0.4630    3.6830 C.ar    1  UNL1        0.0000
     37 *           3.1870    0.8440    3.8070 Du      1  UNL1        0.0000
     38 C           0.8890    0.4170    2.4440 C.ar    1  UNL1        0.0000
     39 C          -3.0720    0.3460   -0.2800 C.ar    1  UNL1        0.0000
     40 C          -2.4640   -0.2270   -1.3990 C.ar    1  UNL1        0.0000
     41 H           3.9190    1.8830  -11.4970 H       1  UNL1        0.0000
     42 H           2.1580    1.6290  -11.5070 H       1  UNL1        0.0000
     43 H           2.8900    2.7380  -10.3230 H       1  UNL1        0.0000
     44 H           1.5490    1.5390   -8.3690 H       1  UNL1        0.0000
     45 H           0.8160    0.4300   -9.5520 H       1  UNL1        0.0000
     46 H           1.6290   -1.5090   -8.2380 H       1  UNL1        0.0000
     47 H           2.3610   -0.4000   -7.0550 H       1  UNL1        0.0000
     48 H           0.2730    0.4450   -6.5630 H       1  UNL1        0.0000
     49 H           0.3440   -2.4630   -6.5490 H       1  UNL1        0.0000
     50 H           1.0770   -1.3540   -5.3660 H       1  UNL1        0.0000
     51 H          -2.3210   -2.7530   -6.4810 H       1  UNL1        0.0000
     52 H          -4.1670   -2.1410   -4.6140 H       1  UNL1        0.0000
     53 H          -5.0620    0.0130   -3.5730 H       1  UNL1        0.0000
     54 H          -6.1410    1.0060   -1.6330 H       1  UNL1        0.0000
     55 H          -4.7760    1.8910    2.7040 H       1  UNL1        0.0000
     56 H          -0.5900   -0.2490    0.3190 H       1  UNL1        0.0000
     57 H          -2.2500   -0.3820    3.4170 H       1  UNL1        0.0000
     58 H          -1.1620   -0.3070    5.6230 H       1  UNL1        0.0000
     59 H          -0.4470    0.6670    6.9540 H       1  UNL1        0.0000
     60 H          -0.0460   -1.0600    6.8150 H       1  UNL1        0.0000
     61 H           0.5390    2.0350    8.6990 H       1  UNL1        0.0000
     62 H           1.5250    2.0860   10.9550 H       1  UNL1        0.0000
     63 H           2.4980    0.0400   11.9200 H       1  UNL1        0.0000
     64 H           1.4930   -2.1070    8.3700 H       1  UNL1        0.0000
     65 H           1.4630    0.6200    1.5520 H       1  UNL1        0.0000
     66 H          -1.4430   -0.5760   -1.3470 H       1  UNL1        0.0000
@<TRIPOS>BOND
     1     1     2    1
     2     1    41    1
     3     1    42    1
     4     1    43    1
     5     2     3    2
     6     2     4    2
     7     2     5    1
     8     5     6    1
     9     5    44    1
    10     5    45    1
    11     6     7    1
    12     6    46    1
    13     6    47    1
    14     7     8    1
    15     7    48    1
    16     8     9    1
    17     8    49    1
    18     8    50    1
    19     9    10   ar
    20     9    13   ar
    21    10    11   ar
    22    10    51    1
    23    11    12   ar
    24    11    52    1
    25    12    13   ar
    26    12    14    1
    27    14    15   ar
    28    14    40   ar
    29    15    16   ar
    30    15    53    1
    31    16    17   ar
    32    16    54    1
    33    17    18   ar
    34    17    39   ar
    35    18    19   ar
    36    19    20   ar
    37    19    55    1
    38    20    21   ar
    39    21    22    1
    40    21    39   ar
    41    22    23    1
    42    22    56    1
    43    23    24   ar
    44    23    38   ar
    45    24    25   ar
    46    24    57    1
    47    25    26   ar
    48    25    58    1
    49    26    27    1
    50    26    36   ar
    51    27    28    1
    52    28    29    1
    53    28    59    1
    54    28    60    1
    55    29    30   ar
    56    29    35   ar
    57    30    31   ar
    58    30    61    1
    59    31    32   ar
    60    31    62    1
    61    32    33   ar
    62    32    63    1
    63    33    34    1
    64    33    35   ar
    65    35    64    1
    66    36    37    1
    67    36    38   ar
    68    38    65    1
    69    39    40   ar
    70    40    66    1
