@<TRIPOS>MOLECULE
3QW
32 36 0 0 0
SMALL
NO_CHARGES

@<TRIPOS>ATOM
     1 C14        -50.1200    -0.4740   -16.7320 C.ar     1 LIG 0.0000
     2 C5         -52.4840     0.5510   -20.7860 C.ar     1 LIG 0.0000
     3 C6         -53.1290     0.7390   -22.0180 C.ar     1 LIG 0.0000
     4 C11        -52.0730     0.9690   -18.5480 C.ar     1 LIG 0.0000
     5 C7         -54.1520     1.6790   -22.1280 C.ar     1 LIG 0.0000
     6 C9         -53.9390     2.2720   -19.8820 C.ar     1 LIG 0.0000
     7 C10        -52.9090     1.3450   -19.6870 C.ar     1 LIG 0.0000
     8 C12        -51.2170     0.0060   -18.9770 C.ar     1 LIG 0.0000
     9 C13        -50.1590    -0.5650   -18.0950 C.ar     1 LIG 0.0000
    10 C3         -49.7990    -0.5980   -22.1980 C.ar     1 LIG 0.0000
    11 C1         -51.6030    -2.3430   -21.7700 C.ar     1 LIG 0.0000
    12 C2         -50.7190    -1.2450   -21.1630 C.ar     1 LIG 0.0000
    13 N4         -51.4540    -0.2590   -20.3340 N.ar     1 LIG 0.0000
    14 N8         -54.5190     2.3980   -21.0660 N.ar     1 LIG 0.0000
    15 N15        -48.9710    -1.0440   -16.3050 N.ar     1 LIG 0.0000
    16 N17        -48.2550    -1.4910   -17.4220 N.ar     1 LIG 0.0000
    17 C18        -48.9460    -1.1830   -18.4890 C.ar     1 LIG 0.0000
    18 N19        -54.8110     1.9510   -23.3350 N.ar     1 LIG 0.0000
    19 C20        -54.9280     1.1360   -24.4640 C.ar     1 LIG 0.0000
    20 C21        -56.0840     1.2470   -25.2630 C.ar     1 LIG 0.0000
    21 C22        -56.1980     0.4360   -26.3850 C.ar     1 LIG 0.0000
    22 N23        -55.2140    -0.4160   -26.6680 N.ar     1 LIG 0.0000
    23 C24        -54.1170    -0.5180   -25.8980 C.ar     1 LIG 0.0000
    24 N25        -53.9810     0.2560   -24.8180 N.ar     1 LIG 0.0000
    25 N26        -53.1060    -1.4270   -26.2280 N.ar     1 LIG 0.0000
    26 C27        -52.8150    -1.4360   -27.6890 C.ar     1 LIG 0.0000
    27 C28        -51.7210    -2.4320   -28.0650 C.ar     1 LIG 0.0000
    28 C29        -50.4500    -2.1090   -27.2600 C.ar     1 LIG 0.0000
    29 C30        -50.7640    -2.1980   -25.7490 C.ar     1 LIG 0.0000
    30 C31        -51.9170    -1.2690   -25.3500 C.ar     1 LIG 0.0000
    31 O32        -49.4670    -3.0910   -27.6150 O.2      1 LIG 0.0000
    32 C33        -48.1000    -2.7240   -27.4210 C.ar     1 LIG 0.0000
@<TRIPOS>BOND
     1   27   26 1
     2   27   28 1
     3   26   25 1
     4   31   32 1
     5   31   28 1
     6   28   29 1
     7   22   21 2
     8   22   23 1
     9   21   20 1
    10   25   23 1
    11   25   30 1
    12   23   24 2
    13   29   30 1
    14   20   19 2
    15   24   19 1
    16   19   18 1
    17   18    5 1
    18   10   12 1
    19    5    3 2
    20    5   14 1
    21    3    2 1
    22   11   12 1
    23   12   13 1
    24   14    6 2
    25    2   13 1
    26    2    7 2
    27   13    8 1
    28    6    7 1
    29    7    4 1
    30    8    4 2
    31    8    9 1
    32   17    9 1
    33   17   16 2
    34    9    1 2
    35   16   15 1
    36    1   15 1
