@<TRIPOS>MOLECULE
3QY
29 33 0 0 0
SMALL
NO_CHARGES

@<TRIPOS>ATOM
     1 C4         -47.9510    -1.1370   -21.2360 C.ar     1 LIG 0.0000
     2 C5         -48.7770    -0.1420   -20.4040 C.ar     1 LIG 0.0000
     3 C11        -51.4830     1.0710   -16.9700 C.ar     1 LIG 0.0000
     4 C7         -48.7170    -1.5920   -18.4100 C.ar     1 LIG 0.0000
     5 C8         -47.8890    -2.6660   -19.1390 C.ar     1 LIG 0.0000
     6 C9         -50.5690    -0.0520   -18.8060 C.ar     1 LIG 0.0000
     7 C12        -52.5350     1.5170   -17.7600 C.ar     1 LIG 0.0000
     8 C13        -52.5670     1.1400   -19.1160 C.ar     1 LIG 0.0000
     9 C3         -47.0990    -2.0380   -20.3120 C.ar     1 LIG 0.0000
    10 C1         -46.7790    -4.0130   -21.8100 C.ar     1 LIG 0.0000
    11 O2         -46.2230    -2.9500   -21.0090 O.2      1 LIG 0.0000
    12 N6         -49.5690    -0.8510   -19.3720 N.ar     1 LIG 0.0000
    13 N10        -50.5310     0.3070   -17.5140 N.ar     1 LIG 0.0000
    14 N14        -51.5820     0.3540   -19.5810 N.ar     1 LIG 0.0000
    15 N15        -53.6270     1.5950   -19.9140 N.ar     1 LIG 0.0000
    16 C16        -53.8360     1.3780   -21.2870 C.ar     1 LIG 0.0000
    17 C17        -53.0310     0.5140   -22.0230 C.ar     1 LIG 0.0000
    18 C18        -53.2850     0.3250   -23.3800 C.ar     1 LIG 0.0000
    19 C19        -54.3760     1.0090   -23.9780 C.ar     1 LIG 0.0000
    20 C20        -54.3810     0.5940   -25.3850 C.ar     1 LIG 0.0000
    21 C21        -53.3360    -0.2640   -25.5520 C.ar     1 LIG 0.0000
    22 N22        -52.6780    -0.4220   -24.3560 N.ar     1 LIG 0.0000
    23 C24        -52.8880    -0.9270   -26.8000 C.ar     1 LIG 0.0000
    24 C25        -51.7580    -0.6160   -27.5020 C.ar     1 LIG 0.0000
    25 N26        -51.6940    -1.4450   -28.5630 N.ar     1 LIG 0.0000
    26 N28        -52.8060    -2.2920   -28.5290 N.ar     1 LIG 0.0000
    27 C29        -53.5120    -1.9990   -27.4700 C.ar     1 LIG 0.0000
    28 C30        -55.1650     1.8390   -23.1660 C.ar     1 LIG 0.0000
    29 N31        -54.8600     2.0030   -21.8810 N.ar     1 LIG 0.0000
@<TRIPOS>BOND
     1   25   26 1
     2   25   24 1
     3   26   27 2
     4   24   23 2
     5   27   23 1
     6   23   21 1
     7   21   20 2
     8   21   22 1
     9   20   19 1
    10   22   18 1
    11   19   18 2
    12   19   28 1
    13   18   17 1
    14   28   29 2
    15   17   16 2
    16   29   16 1
    17   10   11 1
    18   16   15 1
    19    1    2 1
    20    1    9 1
    21   11    9 1
    22    2   12 1
    23    9    5 1
    24   15    8 1
    25   14    8 2
    26   14    6 1
    27   12    6 1
    28   12    4 1
    29    5    4 1
    30    8    7 1
    31    6   13 2
    32    7    3 2
    33   13    3 1
