@<TRIPOS>MOLECULE
3R0
29 33 0 0 0
SMALL
NO_CHARGES

@<TRIPOS>ATOM
     1 C4         -48.6190    -1.7840   -21.1050 C.ar     1 LIG 0.0000
     2 C5         -49.4400    -0.5620   -20.6660 C.ar     1 LIG 0.0000
     3 C11        -52.1150     1.2860   -17.2790 C.ar     1 LIG 0.0000
     4 C7         -48.8500    -0.9000   -18.2990 C.ar     1 LIG 0.0000
     5 C8         -47.9270    -2.0830   -18.6480 C.ar     1 LIG 0.0000
     6 C9         -50.9960     0.0810   -18.9380 C.ar     1 LIG 0.0000
     7 C12        -53.0110     1.7420   -18.2470 C.ar     1 LIG 0.0000
     8 C13        -52.8930     1.3110   -19.5870 C.ar     1 LIG 0.0000
     9 C3         -47.4490    -2.0240   -20.1190 C.ar     1 LIG 0.0000
    10 C1         -45.4960    -3.0530   -21.1380 C.ar     1 LIG 0.0000
    11 O2         -46.7490    -3.2340   -20.4620 O.2      1 LIG 0.0000
    12 N6         -49.9510    -0.7810   -19.2910 N.ar     1 LIG 0.0000
    13 N10        -51.1360     0.4640   -17.6580 N.ar     1 LIG 0.0000
    14 N14        -51.8700     0.4870   -19.8760 N.ar     1 LIG 0.0000
    15 N15        -53.8010     1.8050   -20.5420 N.ar     1 LIG 0.0000
    16 C16        -53.9520     1.3930   -21.8810 C.ar     1 LIG 0.0000
    17 C17        -53.0680     0.4960   -22.4750 C.ar     1 LIG 0.0000
    18 C18        -53.2840     0.0890   -23.7940 C.ar     1 LIG 0.0000
    19 C19        -54.3890     0.5850   -24.5410 C.ar     1 LIG 0.0000
    20 C20        -55.2270     1.4880   -23.8760 C.ar     1 LIG 0.0000
    21 N21        -54.9730     1.8630   -22.6140 N.ar     1 LIG 0.0000
    22 N22        -54.3550    -0.0120   -25.7720 N.ar     1 LIG 0.0000
    23 C23        -53.3070    -0.8230   -25.7970 C.ar     1 LIG 0.0000
    24 N24        -52.6230    -0.7770   -24.6210 N.ar     1 LIG 0.0000
    25 C26        -52.7470    -1.6200   -26.8960 C.ar     1 LIG 0.0000
    26 C27        -53.3690    -2.0740   -28.0270 C.ar     1 LIG 0.0000
    27 N28        -52.4400    -2.7370   -28.7320 N.ar     1 LIG 0.0000
    28 N30        -51.2180    -2.6960   -28.0470 N.ar     1 LIG 0.0000
    29 C31        -51.3960    -2.0310   -26.9480 C.ar     1 LIG 0.0000
@<TRIPOS>BOND
     1   27   28 1
     2   27   26 1
     3   28   29 2
     4   26   25 2
     5   29   25 1
     6   25   23 1
     7   23   22 1
     8   23   24 2
     9   22   19 1
    10   24   18 1
    11   19   20 1
    12   19   18 2
    13   20   21 2
    14   18   17 1
    15   21   16 1
    16   17   16 2
    17   16   15 1
    18   10   11 1
    19    1    2 1
    20    1    9 1
    21    2   12 1
    22   15    8 1
    23   11    9 1
    24    9    5 1
    25   14    8 2
    26   14    6 1
    27    8    7 1
    28   12    6 1
    29   12    4 1
    30    6   13 2
    31    5    4 1
    32    7    3 2
    33   13    3 1
