@<TRIPOS>MOLECULE
3R1
30 32 0 0 0
SMALL
NO_CHARGES

@<TRIPOS>ATOM
     1 C4         -52.9730     1.2320   -18.8220 C.ar     1 LIG 0.0000
     2 C6         -51.0120     0.0600   -18.3110 C.ar     1 LIG 0.0000
     3 C11        -48.1750    -1.1940   -20.3390 C.ar     1 LIG 0.0000
     4 C9         -49.6770    -1.0330   -20.1450 C.ar     1 LIG 0.0000
     5 C12        -50.3770    -2.3400   -20.5560 C.ar     1 LIG 0.0000
     6 C3         -53.0790     1.6320   -17.4720 C.ar     1 LIG 0.0000
     7 C1         -52.1690     1.5310   -15.1100 C.ar     1 LIG 0.0000
     8 C2         -52.1120     1.1640   -16.5740 C.ar     1 LIG 0.0000
     9 N5         -51.9410     0.4530   -19.1760 N.ar     1 LIG 0.0000
    10 N7         -51.1100     0.3990   -17.0250 N.ar     1 LIG 0.0000
    11 N8         -49.9470    -0.7330   -18.7310 N.ar     1 LIG 0.0000
    12 O13        -50.6680    -2.3330   -21.9650 O.2      1 LIG 0.0000
    13 N14        -53.9080     1.6820   -19.7620 N.ar     1 LIG 0.0000
    14 C15        -53.9230     1.4410   -21.1450 C.ar     1 LIG 0.0000
    15 C16        -53.1010     0.4720   -21.7200 C.ar     1 LIG 0.0000
    16 C17        -53.1460     0.2320   -23.0950 C.ar     1 LIG 0.0000
    17 C18        -54.0820     0.9750   -23.8610 C.ar     1 LIG 0.0000
    18 C19        -54.9140     1.8910   -23.2320 C.ar     1 LIG 0.0000
    19 N20        -54.7980     2.1070   -21.9170 N.ar     1 LIG 0.0000
    20 N21        -52.2980    -0.7870   -23.5810 N.ar     1 LIG 0.0000
    21 C22        -52.3820    -1.3840   -24.7920 C.ar     1 LIG 0.0000
    22 O23        -53.1960    -1.0180   -25.6450 O.2      1 LIG 0.0000
    23 C24        -51.4840    -2.4990   -25.1800 C.ar     1 LIG 0.0000
    24 C25        -50.3880    -2.2380   -26.0150 C.ar     1 LIG 0.0000
    25 C26        -49.6270    -3.2850   -26.5160 C.ar     1 LIG 0.0000
    26 C27        -49.9700    -4.6010   -26.2220 C.ar     1 LIG 0.0000
    27 C28        -51.0730    -4.8790   -25.4250 C.ar     1 LIG 0.0000
    28 C29        -51.8350    -3.8390   -24.9200 C.ar     1 LIG 0.0000
    29 CL1        -53.1870    -4.2200   -23.9140 CL       1 LIG 0.0000
    30 CL2        -49.9570    -0.5950   -26.3520 CL       1 LIG 0.0000
@<TRIPOS>BOND
     1   25   26 2
     2   25   24 1
     3   30   24 1
     4   26   27 1
     5   24   23 2
     6   22   21 2
     7   27   28 2
     8   23   28 1
     9   23   21 1
    10   28   29 1
    11   21   20 1
    12   17   18 2
    13   17   16 1
    14   20   16 1
    15   18   19 1
    16   16   15 2
    17   12    5 1
    18   19   14 2
    19   15   14 1
    20   14   13 1
    21    5    4 1
    22    3    4 1
    23    4   11 1
    24   13    1 1
    25    9    1 2
    26    9    2 1
    27    1    6 1
    28   11    2 1
    29    2   10 2
    30    6    8 2
    31   10    8 1
    32    8    7 1
