@<TRIPOS>MOLECULE
W2R
 73 77 0 0 0
SMALL
GASTEIGER

@<TRIPOS>ATOM
      1 C           3.2610    4.6900   -0.0340 C.ar    1  UNL1        0.0000
      2 C           4.0060    3.8260    0.7450 C.ar    1  UNL1        0.0000
      3 C          -1.3170    1.3170    0.2240 C.ar    1  UNL1        0.0000
      4 C           2.3690    4.1900   -0.9640 C.ar    1  UNL1        0.0000
      5 C          -0.1060    1.8000   -0.2300 C.ar    1  UNL1        0.0000
      6 C          -6.9300    0.0980    2.9830 C.ar    1  UNL1        0.0000
      7 C           2.9720    1.9490   -0.3430 C.ar    1  UNL1        0.0000
      8 C          -2.0140    0.9310   -2.0450 C.ar    1  UNL1        0.0000
      9 C          -7.0510   -0.8460    2.0300 C.ar    1  UNL1        0.0000
     10 C          -4.0450    2.4350    2.6570 C.ar    1  UNL1        0.0000
     11 C          -5.7460    0.8860    2.6560 C.ar    1  UNL1        0.0000
     12 C          -5.2200    0.3230    1.4790 C.ar    1  UNL1        0.0000
     13 C           3.8640    2.4530    0.5920 C.ar    1  UNL1        0.0000
     14 C          -2.2740    0.8780   -0.6820 C.ar    1  UNL1        0.0000
     15 C           2.2220    2.8190   -1.1200 C.ar    1  UNL1        0.0000
     16 C           0.1540    1.8530   -1.5910 C.ar    1  UNL1        0.0000
     17 C          -0.8040    1.4210   -2.4990 C.ar    1  UNL1        0.0000
     18 C          -4.0630    0.8920    0.9370 C.ar    1  UNL1        0.0000
     19 C           5.0280    0.3970    0.8710 C.2     1  UNL1        0.0000
     20 C           8.0350   -3.9770    1.0020 C.3     1  UNL1        0.0000
     21 C           7.9340   -2.9470   -0.1240 C.3     1  UNL1        0.0000
     22 C           6.6640   -4.1490    1.6600 C.3     1  UNL1        0.0000
     23 C           7.4740   -1.6060    0.4510 C.3     1  UNL1        0.0000
     24 C           6.2030   -2.8080    2.2360 C.3     1  UNL1        0.0000
     25 C           6.1030   -1.7770    1.1090 C.3     1  UNL1        0.0000
     26 C          -5.8460   -1.5850   -0.0450 C.3     1  UNL1        0.0000
     27 C          -4.7340   -2.5970    0.2410 C.3     1  UNL1        0.0000
     28 C          -3.4150   -5.2560   -2.0150 C.3     1  UNL1        0.0000
     29 C          -3.5270   -4.4210   -0.7380 C.3     1  UNL1        0.0000
     30 N          -5.1300    1.9340    3.2070 N.ar    1  UNL1        0.0000
     31 N          -3.5150    1.9340    1.5560 N.ar    1  UNL1        0.0000
     32 N          -6.0370   -0.7260    1.1260 N.ar    1  UNL1        0.0000
     33 N          -3.4990    0.3810   -0.2220 N.pl3   1  UNL1        0.0000
     34 N           4.6220    1.5780    1.3780 N.am    1  UNL1        0.0000
     35 N           5.6620   -0.4930    1.6600 N.am    1  UNL1        0.0000
     36 O           4.8220    0.1340   -0.2980 O.2     1  UNL1        0.0000
     37 O          -2.9710   -4.4260   -3.0890 O.3     1  UNL1        0.0000
     38 O           1.3470    2.3300   -2.0380 O.3     1  UNL1        0.0000
     39 O          -4.5480   -3.4350   -0.9010 O.3     1  UNL1        0.0000
     40 *          -0.4780    1.4880   -4.2020 Du      1  UNL1        0.0000
     41 H           3.3740    5.7570    0.0860 H       1  UNL1        0.0000
     42 H           4.7010    4.2190    1.4730 H       1  UNL1        0.0000
     43 H          -1.5190    1.2760    1.2850 H       1  UNL1        0.0000
     44 H           1.7840    4.8680   -1.5680 H       1  UNL1        0.0000
     45 H           0.6390    2.1370    0.4750 H       1  UNL1        0.0000
     46 H          -7.5870    0.2460    3.8270 H       1  UNL1        0.0000
     47 H           2.8590    0.8820   -0.4640 H       1  UNL1        0.0000
     48 H          -2.7570    0.5900   -2.7500 H       1  UNL1        0.0000
     49 H          -7.8350   -1.5880    1.9880 H       1  UNL1        0.0000
     50 H          -3.5680    3.2830    3.1250 H       1  UNL1        0.0000
     51 H           8.3630   -4.9330    0.5920 H       1  UNL1        0.0000
     52 H           8.7540   -3.6350    1.7450 H       1  UNL1        0.0000
     53 H           8.9100   -2.8250   -0.5930 H       1  UNL1        0.0000
     54 H           7.2140   -3.2900   -0.8680 H       1  UNL1        0.0000
     55 H           5.9440   -4.4920    0.9170 H       1  UNL1        0.0000
     56 H           6.7360   -4.8830    2.4630 H       1  UNL1        0.0000
     57 H           8.1930   -1.2630    1.1940 H       1  UNL1        0.0000
     58 H           7.4020   -0.8720   -0.3510 H       1  UNL1        0.0000
     59 H           5.2270   -2.9300    2.7040 H       1  UNL1        0.0000
     60 H           6.9230   -2.4650    2.9790 H       1  UNL1        0.0000
     61 H           5.3830   -2.1200    0.3660 H       1  UNL1        0.0000
     62 H          -5.5680   -0.9730   -0.9030 H       1  UNL1        0.0000
     63 H          -6.7730   -2.1150   -0.2620 H       1  UNL1        0.0000
     64 H          -3.8070   -2.0670    0.4580 H       1  UNL1        0.0000
     65 H          -5.0120   -3.2090    1.1000 H       1  UNL1        0.0000
     66 H          -2.7000   -6.0640   -1.8600 H       1  UNL1        0.0000
     67 H          -4.3900   -5.6770   -2.2600 H       1  UNL1        0.0000
     68 H          -3.7800   -5.0710    0.1000 H       1  UNL1        0.0000
     69 H          -2.5740   -3.9290   -0.5410 H       1  UNL1        0.0000
     70 H          -3.9530   -0.3220   -0.7130 H       1  UNL1        0.0000
     71 H           4.8570    1.8210    2.2870 H       1  UNL1        0.0000
     72 H           5.8260   -0.2840    2.5930 H       1  UNL1        0.0000
     73 H          -2.8770   -4.8900   -3.9330 H       1  UNL1        0.0000
@<TRIPOS>BOND
     1     1    41    1
     2     2     1   ar
     3     2    42    1
     4     3    43    1
     5     4     1   ar
     6     4    44    1
     7     5     3   ar
     8     5    45    1
     9     6    46    1
    10     7    13   ar
    11     7    15   ar
    12     7    47    1
    13     8    14   ar
    14     8    48    1
    15     9     6   ar
    16     9    49    1
    17    10    30   ar
    18    10    50    1
    19    11     6   ar
    20    12    32   ar
    21    12    11   ar
    22    13     2   ar
    23    14     3   ar
    24    14    33    1
    25    15     4   ar
    26    16     5   ar
    27    17    16   ar
    28    17     8   ar
    29    18    12   ar
    30    19    34   am
    31    20    21    1
    32    20    51    1
    33    20    52    1
    34    21    23    1
    35    21    53    1
    36    21    54    1
    37    22    20    1
    38    22    24    1
    39    22    55    1
    40    22    56    1
    41    23    57    1
    42    23    58    1
    43    24    25    1
    44    24    59    1
    45    24    60    1
    46    25    23    1
    47    25    35    1
    48    25    61    1
    49    26    32    1
    50    26    27    1
    51    26    62    1
    52    26    63    1
    53    27    64    1
    54    27    65    1
    55    28    29    1
    56    28    66    1
    57    28    67    1
    58    29    68    1
    59    29    69    1
    60    30    11   ar
    61    31    18   ar
    62    31    10   ar
    63    32     9   ar
    64    33    18    1
    65    33    70    1
    66    34    13    1
    67    34    71    1
    68    35    19   am
    69    35    72    1
    70    36    19    2
    71    37    28    1
    72    37    73    1
    73    38    15    1
    74    38    16    1
    75    39    27    1
    76    39    29    1
    77    40    17    1
