@<TRIPOS>MOLECULE
W32
 62 65 0 0 0
SMALL
GASTEIGER

@<TRIPOS>ATOM
      1 C          -6.4460   -3.0820    1.4180 C.ar    1  UNL1        0.0000
      2 C          -7.4150   -3.0140    0.4340 C.ar    1  UNL1        0.0000
      3 C          -2.1570   -0.4400   -0.3090 C.ar    1  UNL1        0.0000
      4 C          -5.7210   -1.9550    1.7530 C.ar    1  UNL1        0.0000
      5 C          -3.4610   -0.5260    0.1350 C.ar    1  UNL1        0.0000
      6 C          -6.9380   -0.6900    0.1140 C.ar    1  UNL1        0.0000
      7 C          -1.8630    1.5900    0.9460 C.ar    1  UNL1        0.0000
      8 C           0.3580    4.2310   -0.7410 C.ar    1  UNL1        0.0000
      9 C           1.9050    2.0480   -0.9140 C.ar    1  UNL1        0.0000
     10 C          -7.6600   -1.8190   -0.2180 C.ar    1  UNL1        0.0000
     11 C          -1.3530    0.6170    0.0970 C.ar    1  UNL1        0.0000
     12 C          -5.9650   -0.7550    1.1020 C.ar    1  UNL1        0.0000
     13 C          -3.9700    0.4430    0.9880 C.ar    1  UNL1        0.0000
     14 C          -3.1670    1.5000    1.3950 C.ar    1  UNL1        0.0000
     15 C           2.4420    3.3360   -1.1130 C.ar    1  UNL1        0.0000
     16 C           0.5440    1.9340   -0.5840 C.ar    1  UNL1        0.0000
     17 C           2.7700    0.8830   -1.0620 C.2     1  UNL1        0.0000
     18 C           3.9770    0.8470   -0.4340 C.2     1  UNL1        0.0000
     19 C           4.8530   -0.2470   -0.6390 C.2     1  UNL1        0.0000
     20 C           4.3770    1.9750    0.4810 C.3     1  UNL1        0.0000
     21 C           4.7550    3.2190   -0.3190 C.3     1  UNL1        0.0000
     22 C          10.7660   -2.1530    1.3690 C.3     1  UNL1        0.0000
     23 C           6.9540   -1.4120   -0.2280 C.3     1  UNL1        0.0000
     24 C           8.2300   -1.2040    0.5900 C.3     1  UNL1        0.0000
     25 C          -8.7170   -1.7490   -1.2900 C.3     1  UNL1        0.0000
     26 N           1.6370    4.3870   -1.0280 N.ar    1  UNL1        0.0000
     27 N          -0.1830    3.0500   -0.5180 N.ar    1  UNL1        0.0000
     28 N           3.7880    3.4660   -1.3850 N.pl3   1  UNL1        0.0000
     29 N          -0.0290    0.7010   -0.3490 N.pl3   1  UNL1        0.0000
     30 N           6.0470   -0.2800   -0.0160 N.am    1  UNL1        0.0000
     31 O           4.5270   -1.1580   -1.3800 O.2     1  UNL1        0.0000
     32 O           9.7710   -2.6000   -1.0310 O.2     1  UNL1        0.0000
     33 O           8.7490   -3.7740    0.8630 O.2     1  UNL1        0.0000
     34 O          -5.2530    0.3540    1.4300 O.3     1  UNL1        0.0000
     35 F          -8.1300   -1.3560   -2.4980 F       1  UNL1        0.0000
     36 F          -9.3070   -3.0080   -1.4460 F       1  UNL1        0.0000
     37 F          -9.6940   -0.8180   -0.9220 F       1  UNL1        0.0000
     38 S           9.3520   -2.6040    0.3260 S.O2    1  UNL1        0.0000
     39 *          -3.8030    2.7130    2.4620 Du      1  UNL1        0.0000
     40 H          -6.2600   -4.0160    1.9280 H       1  UNL1        0.0000
     41 H          -7.9810   -3.8960    0.1730 H       1  UNL1        0.0000
     42 H          -1.7610   -1.1980   -0.9700 H       1  UNL1        0.0000
     43 H          -4.9640   -2.0090    2.5220 H       1  UNL1        0.0000
     44 H          -4.0870   -1.3480   -0.1810 H       1  UNL1        0.0000
     45 H          -7.1290    0.2430   -0.3950 H       1  UNL1        0.0000
     46 H          -1.2380    2.4120    1.2630 H       1  UNL1        0.0000
     47 H          -0.2700    5.1080   -0.6820 H       1  UNL1        0.0000
     48 H           2.4530    0.0490   -1.6700 H       1  UNL1        0.0000
     49 H           3.5430    2.2140    1.1410 H       1  UNL1        0.0000
     50 H           5.2310    1.6640    1.0820 H       1  UNL1        0.0000
     51 H           4.7790    4.0810    0.3490 H       1  UNL1        0.0000
     52 H           5.7420    3.0780   -0.7570 H       1  UNL1        0.0000
     53 H          10.4380   -2.0560    2.4040 H       1  UNL1        0.0000
     54 H          11.5300   -2.9280    1.3010 H       1  UNL1        0.0000
     55 H          11.1800   -1.2040    1.0290 H       1  UNL1        0.0000
     56 H           7.2070   -1.4800   -1.2860 H       1  UNL1        0.0000
     57 H           6.4650   -2.3330    0.0890 H       1  UNL1        0.0000
     58 H           8.7180   -0.2820    0.2720 H       1  UNL1        0.0000
     59 H           7.9770   -1.1350    1.6470 H       1  UNL1        0.0000
     60 H           4.0880    3.7180   -2.2730 H       1  UNL1        0.0000
     61 H           0.4870   -0.1080   -0.4930 H       1  UNL1        0.0000
     62 H           6.3070    0.4450    0.5740 H       1  UNL1        0.0000
@<TRIPOS>BOND
     1     1     2   ar
     2     1     4   ar
     3     1    40    1
     4     2    10   ar
     5     2    41    1
     6     3    11   ar
     7     3    42    1
     8     4    12   ar
     9     4    43    1
    10     5     3   ar
    11     5    44    1
    12     6    45    1
    13     7    11   ar
    14     7    46    1
    15     8    26   ar
    16     8    47    1
    17     9    17    1
    18     9    15   ar
    19    10    25    1
    20    10     6   ar
    21    11    29    1
    22    12     6   ar
    23    12    34    1
    24    13    14   ar
    25    13     5   ar
    26    14     7   ar
    27    15    28    1
    28    16     9   ar
    29    17    18    2
    30    17    48    1
    31    18    19    1
    32    18    20    1
    33    19    31    2
    34    20    49    1
    35    20    50    1
    36    21    20    1
    37    21    51    1
    38    21    52    1
    39    22    53    1
    40    22    54    1
    41    22    55    1
    42    23    24    1
    43    23    56    1
    44    23    57    1
    45    24    38    1
    46    24    58    1
    47    24    59    1
    48    25    36    1
    49    25    35    1
    50    26    15   ar
    51    27    16   ar
    52    27     8   ar
    53    28    21    1
    54    28    60    1
    55    29    16    1
    56    29    61    1
    57    30    23    1
    58    30    19   am
    59    30    62    1
    60    32    38    2
    61    34    13    1
    62    37    25    1
    63    38    33    2
    64    38    22    1
    65    39    14    1
