@<TRIPOS>MOLECULE
W19
 57 61 0 0 0
SMALL
GASTEIGER

@<TRIPOS>ATOM
      1 C          -6.8950   -0.0550   -2.1170 C.ar    1  UNL1        0.0000
      2 C          -1.4440   -0.0580   -1.1420 C.ar    1  UNL1        0.0000
      3 C          -6.0000    0.7530   -1.4290 C.ar    1  UNL1        0.0000
      4 C          -2.7900    0.0940   -0.8750 C.ar    1  UNL1        0.0000
      5 C          -7.1960   -1.3100   -1.6460 C.ar    1  UNL1        0.0000
      6 C          -5.1980   -1.6510    1.4200 C.ar    1  UNL1        0.0000
      7 C          -0.9210    1.5240    0.5920 C.ar    1  UNL1        0.0000
      8 C          -5.6700   -2.8650    1.6190 C.ar    1  UNL1        0.0000
      9 C           2.0740    3.8090   -0.1110 C.ar    1  UNL1        0.0000
     10 C          -5.7040   -0.9860    0.2300 C.ar    1  UNL1        0.0000
     11 C           3.1080    1.4010   -0.6790 C.ar    1  UNL1        0.0000
     12 C          -0.5050    0.6540   -0.4070 C.ar    1  UNL1        0.0000
     13 C          -5.4060    0.3050   -0.2710 C.ar    1  UNL1        0.0000
     14 C          -3.2050    0.9580    0.1270 C.ar    1  UNL1        0.0000
     15 C          -6.6060   -1.7880   -0.4710 C.ar    1  UNL1        0.0000
     16 C          -2.2680    1.6710    0.8620 C.ar    1  UNL1        0.0000
     17 C           3.9410    2.5230   -0.4880 C.ar    1  UNL1        0.0000
     18 C           1.7210    1.5650   -0.5270 C.ar    1  UNL1        0.0000
     19 C           3.7070    0.1190   -1.0320 C.2     1  UNL1        0.0000
     20 C           4.7600   -0.3620   -0.3160 C.2     1  UNL1        0.0000
     21 C           5.3940   -1.5670   -0.7050 C.2     1  UNL1        0.0000
     22 C           5.2480    0.3950    0.8920 C.3     1  UNL1        0.0000
     23 C           6.0140    1.6490    0.4790 C.3     1  UNL1        0.0000
     24 C           7.0920   -3.2870   -0.3950 C.3     1  UNL1        0.0000
     25 C           8.2350   -3.5970    0.5730 C.3     1  UNL1        0.0000
     26 N           3.3850    3.6960   -0.2190 N.ar    1  UNL1        0.0000
     27 N           1.2580    2.7840   -0.2520 N.ar    1  UNL1        0.0000
     28 N           5.3080    2.3650   -0.5810 N.pl3   1  UNL1        0.0000
     29 N           0.8600    0.4960   -0.6740 N.pl3   1  UNL1        0.0000
     30 N           6.4360   -2.0400    0.0070 N.am    1  UNL1        0.0000
     31 O           4.9970   -2.1760   -1.6820 O.2     1  UNL1        0.0000
     32 O           7.7020   -3.8530    1.8740 O.3     1  UNL1        0.0000
     33 O          -4.5310    1.1040    0.3930 O.3     1  UNL1        0.0000
     34 S          -6.7970   -3.3280    0.3590 S.2     1  UNL1        0.0000
     35 *          -2.7880    2.7530    2.1160 Du      1  UNL1        0.0000
     36 H          -7.3600    0.3060   -3.0220 H       1  UNL1        0.0000
     37 H          -1.1210   -0.7350   -1.9190 H       1  UNL1        0.0000
     38 H          -5.7680    1.7390   -1.8050 H       1  UNL1        0.0000
     39 H          -3.5200   -0.4610   -1.4460 H       1  UNL1        0.0000
     40 H          -7.8940   -1.9330   -2.1880 H       1  UNL1        0.0000
     41 H          -4.4900   -1.1850    2.0890 H       1  UNL1        0.0000
     42 H          -0.1910    2.0780    1.1640 H       1  UNL1        0.0000
     43 H          -5.3990   -3.4940    2.4540 H       1  UNL1        0.0000
     44 H           1.6540    4.7790    0.1070 H       1  UNL1        0.0000
     45 H           3.3150   -0.4490   -1.8620 H       1  UNL1        0.0000
     46 H           4.3930    0.6830    1.5030 H       1  UNL1        0.0000
     47 H           5.9050   -0.2490    1.4760 H       1  UNL1        0.0000
     48 H           6.1220    2.3040    1.3430 H       1  UNL1        0.0000
     49 H           7.0030    1.3630    0.1210 H       1  UNL1        0.0000
     50 H           7.4890   -3.1800   -1.4050 H       1  UNL1        0.0000
     51 H           6.3670   -4.1020   -0.3750 H       1  UNL1        0.0000
     52 H           8.7790   -4.4750    0.2240 H       1  UNL1        0.0000
     53 H           8.9130   -2.7450    0.6190 H       1  UNL1        0.0000
     54 H           5.7940    2.7240   -1.3400 H       1  UNL1        0.0000
     55 H           1.2010   -0.3660   -0.9630 H       1  UNL1        0.0000
     56 H           6.7520   -1.5550    0.7850 H       1  UNL1        0.0000
     57 H           8.3720   -4.0570    2.5400 H       1  UNL1        0.0000
@<TRIPOS>BOND
     1     1     5   ar
     2     1     3   ar
     3     1    36    1
     4     2    12   ar
     5     2    37    1
     6     3    13   ar
     7     3    38    1
     8     4     2   ar
     9     4    39    1
    10     5    15   ar
    11     5    40    1
    12     6     8   ar
    13     6    41    1
    14     7    12   ar
    15     7    42    1
    16     8    43    1
    17     9    26   ar
    18     9    44    1
    19    10     6   ar
    20    11    19    1
    21    11    17   ar
    22    12    29    1
    23    13    10   ar
    24    13    33    1
    25    14    16   ar
    26    14     4   ar
    27    15    34   ar
    28    15    10   ar
    29    16     7   ar
    30    17    28    1
    31    18    11   ar
    32    19    20    2
    33    19    45    1
    34    20    21    1
    35    20    22    1
    36    21    31    2
    37    22    46    1
    38    22    47    1
    39    23    22    1
    40    23    48    1
    41    23    49    1
    42    24    30    1
    43    24    25    1
    44    24    50    1
    45    24    51    1
    46    25    32    1
    47    25    52    1
    48    25    53    1
    49    26    17   ar
    50    27    18   ar
    51    27     9   ar
    52    28    23    1
    53    28    54    1
    54    29    18    1
    55    29    55    1
    56    30    21   am
    57    30    56    1
    58    32    57    1
    59    33    14    1
    60    34     8   ar
    61    35    16    1
