@<TRIPOS>MOLECULE
0WM
 59 62 0 0 0
SMALL
GASTEIGER

@<TRIPOS>ATOM
      1 C          -2.1140    3.2370    0.5330 C.ar    1  UNL1        0.0000
      2 N          -2.5630    1.9920    0.5370 N.ar    1  UNL1        0.0000
      3 N          -0.8370    3.5350    0.4860 N.ar    1  UNL1        0.0000
      4 C          -1.7350    0.9560    0.4910 C.ar    1  UNL1        0.0000
      5 C           0.0870    2.5630    0.4370 C.ar    1  UNL1        0.0000
      6 C          -0.3450    1.2130    0.4390 C.ar    1  UNL1        0.0000
      7 C           1.9400    0.4890    0.3400 C.ar    1  UNL1        0.0000
      8 C           0.5990    0.1800    0.3890 C.ar    1  UNL1        0.0000
      9 C           2.3630    1.8280    0.3390 C.ar    1  UNL1        0.0000
     10 C           1.4570    2.8490    0.3870 C.ar    1  UNL1        0.0000
     11 N          -2.2170   -0.3370    0.4960 N.pl3   1  UNL1        0.0000
     12 C          -5.7590    0.0160   -0.4280 C.ar    1  UNL1        0.0000
     13 C          -6.3200   -1.0370    0.2770 C.ar    1  UNL1        0.0000
     14 C          -4.3980    0.2490   -0.3580 C.ar    1  UNL1        0.0000
     15 C          -5.5190   -1.8550    1.0560 C.ar    1  UNL1        0.0000
     16 C          -3.5950   -0.5700    0.4230 C.ar    1  UNL1        0.0000
     17 C          -4.1600   -1.6220    1.1330 C.ar    1  UNL1        0.0000
     18 F          -7.6490   -1.2660    0.2030 F       1  UNL1        0.0000
     19 *          -6.7650    1.0400   -1.4050 Du      1  UNL1        0.0000
     20 O           3.6910    2.1110    0.2900 O.3     1  UNL1        0.0000
     21 C           4.0610    3.4910    0.3010 C.3     1  UNL1        0.0000
     22 C           4.0250    4.0820   -1.1250 C.3     1  UNL1        0.0000
     23 O           5.1610    4.9430   -1.2650 O.3     1  UNL1        0.0000
     24 C           5.9000    4.9850   -0.0340 C.3     1  UNL1        0.0000
     25 C           5.5550    3.6600    0.6910 C.3     1  UNL1        0.0000
     26 N           2.8890   -0.5390    0.2910 N.am    1  UNL1        0.0000
     27 C           2.5450   -1.7500   -0.1900 C.2     1  UNL1        0.0000
     28 C           3.5070   -2.8620   -0.1370 C.2     1  UNL1        0.0000
     29 O           1.4400   -1.9240   -0.6670 O.2     1  UNL1        0.0000
     30 C           3.1680   -4.0570   -0.6120 C.2     1  UNL1        0.0000
     31 C           4.1530   -5.1960   -0.5570 C.3     1  UNL1        0.0000
     32 N           3.5440   -6.3380    0.1390 N.3     1  UNL1        0.0000
     33 C           2.4190   -6.8850   -0.6320 C.3     1  UNL1        0.0000
     34 C           4.5440   -7.3770    0.4210 C.3     1  UNL1        0.0000
     35 H          -2.8310    4.0440    0.5670 H       1  UNL1        0.0000
     36 H           0.2770   -0.8510    0.3900 H       1  UNL1        0.0000
     37 H           1.7960    3.8750    0.3850 H       1  UNL1        0.0000
     38 H          -1.6010   -1.0840    0.5490 H       1  UNL1        0.0000
     39 H          -3.9610    1.0670   -0.9110 H       1  UNL1        0.0000
     40 H          -5.9580   -2.6750    1.6050 H       1  UNL1        0.0000
     41 H          -3.5360   -2.2600    1.7410 H       1  UNL1        0.0000
     42 H           3.4160    4.0580    0.9730 H       1  UNL1        0.0000
     43 H           4.0780    3.2780   -1.8590 H       1  UNL1        0.0000
     44 H           3.1080    4.6530   -1.2650 H       1  UNL1        0.0000
     45 H           6.9700    5.0380   -0.2360 H       1  UNL1        0.0000
     46 H           5.5860    5.8390    0.5670 H       1  UNL1        0.0000
     47 H           5.6710    3.7600    1.7700 H       1  UNL1        0.0000
     48 H           6.1560    2.8350    0.3080 H       1  UNL1        0.0000
     49 H           3.7930   -0.3800    0.6030 H       1  UNL1        0.0000
     50 H           4.4880   -2.7070    0.2870 H       1  UNL1        0.0000
     51 H           2.1870   -4.2120   -1.0350 H       1  UNL1        0.0000
     52 H           4.4240   -5.4910   -1.5710 H       1  UNL1        0.0000
     53 H           5.0470   -4.8780   -0.0210 H       1  UNL1        0.0000
     54 H           2.7750   -7.2190   -1.6060 H       1  UNL1        0.0000
     55 H           1.9870   -7.7290   -0.0940 H       1  UNL1        0.0000
     56 H           1.6620   -6.1130   -0.7660 H       1  UNL1        0.0000
     57 H           5.3310   -6.9620    1.0510 H       1  UNL1        0.0000
     58 H           4.0660   -8.2100    0.9360 H       1  UNL1        0.0000
     59 H           4.9760   -7.7290   -0.5160 H       1  UNL1        0.0000
@<TRIPOS>BOND
     1     1     2   ar
     2     1     3   ar
     3     1    35    1
     4     2     4   ar
     5     3     5   ar
     6     4    11    1
     7     4     6   ar
     8     5     6   ar
     9     5    10   ar
    10     6     8   ar
    11     7     9   ar
    12     7    26    1
    13     8     7   ar
    14     8    36    1
    15     9    20    1
    16    10     9   ar
    17    10    37    1
    18    11    16    1
    19    11    38    1
    20    12    19    1
    21    13    12   ar
    22    13    18    1
    23    14    12   ar
    24    14    39    1
    25    15    13   ar
    26    15    40    1
    27    16    14   ar
    28    17    15   ar
    29    17    16   ar
    30    17    41    1
    31    20    21    1
    32    21    22    1
    33    21    25    1
    34    21    42    1
    35    22    23    1
    36    22    43    1
    37    22    44    1
    38    23    24    1
    39    24    45    1
    40    24    46    1
    41    25    24    1
    42    25    47    1
    43    25    48    1
    44    26    27   am
    45    26    49    1
    46    27    28    1
    47    28    30    2
    48    28    50    1
    49    29    27    2
    50    30    31    1
    51    30    51    1
    52    31    52    1
    53    31    53    1
    54    32    31    1
    55    33    32    1
    56    33    54    1
    57    33    55    1
    58    33    56    1
    59    34    32    1
    60    34    57    1
    61    34    58    1
    62    34    59    1
