@<TRIPOS>MOLECULE
IRE
 55 58 0 0 0
SMALL
GASTEIGER

@<TRIPOS>ATOM
      1 C          -6.0810   -3.1410    0.6400 C.3     1  UNL1        0.0000
      2 C          -7.5790   -3.3890    0.8390 C.3     1  UNL1        0.0000
      3 O          -8.2940   -2.8970   -0.2980 O.3     1  UNL1        0.0000
      4 C          -8.0950   -1.5020   -0.5430 C.3     1  UNL1        0.0000
      5 C          -6.6030   -1.2340   -0.7550 C.3     1  UNL1        0.0000
      6 N          -5.8530   -1.7050    0.4190 N.3     1  UNL1        0.0000
      7 C          -4.4200   -1.4150    0.2790 C.3     1  UNL1        0.0000
      8 C          -4.2020    0.0990    0.3000 C.3     1  UNL1        0.0000
      9 C          -2.7090    0.4010    0.1550 C.3     1  UNL1        0.0000
     10 O          -2.5050    1.8150    0.1750 O.3     1  UNL1        0.0000
     11 C          -1.2240    2.2560    0.0560 C.ar    1  UNL1        0.0000
     12 C          -0.9610    3.6330    0.0690 C.ar    1  UNL1        0.0000
     13 C           0.3280    4.1040   -0.0510 C.ar    1  UNL1        0.0000
     14 O          -1.9880    4.5120    0.1990 O.3     1  UNL1        0.0000
     15 C          -1.6560    5.9020    0.2050 C.3     1  UNL1        0.0000
     16 C          -0.2070    1.3520   -0.0690 C.ar    1  UNL1        0.0000
     17 C           1.1120    1.8050   -0.1920 C.ar    1  UNL1        0.0000
     18 C           1.3850    3.1950   -0.1850 C.ar    1  UNL1        0.0000
     19 N           2.6580    3.6030   -0.3050 N.ar    1  UNL1        0.0000
     20 C           3.6270    2.7280   -0.4310 C.ar    1  UNL1        0.0000
     21 N           3.4200    1.4210   -0.4470 N.ar    1  UNL1        0.0000
     22 C           2.2010    0.9110   -0.3240 C.ar    1  UNL1        0.0000
     23 N           1.9990   -0.4550   -0.3360 N.pl3   1  UNL1        0.0000
     24 C           3.0960   -1.3230   -0.3450 C.ar    1  UNL1        0.0000
     25 C           4.2570   -0.9850    0.3370 C.ar    1  UNL1        0.0000
     26 C           5.3390   -1.8450    0.3260 C.ar    1  UNL1        0.0000
     27 *           6.7910   -1.4230    1.1790 Du      1  UNL1        0.0000
     28 C           5.2650   -3.0440   -0.3650 C.ar    1  UNL1        0.0000
     29 F           6.3230   -3.8840   -0.3740 F       1  UNL1        0.0000
     30 C           4.1080   -3.3830   -1.0450 C.ar    1  UNL1        0.0000
     31 C           3.0230   -2.5280   -1.0330 C.ar    1  UNL1        0.0000
     32 H          -5.5380   -3.4620    1.5290 H       1  UNL1        0.0000
     33 H          -5.7310   -3.7030   -0.2250 H       1  UNL1        0.0000
     34 H          -7.7590   -4.4590    0.9470 H       1  UNL1        0.0000
     35 H          -7.9180   -2.8700    1.7350 H       1  UNL1        0.0000
     36 H          -8.6480   -1.2070   -1.4340 H       1  UNL1        0.0000
     37 H          -8.4490   -0.9280    0.3130 H       1  UNL1        0.0000
     38 H          -6.2600   -1.7660   -1.6430 H       1  UNL1        0.0000
     39 H          -6.4400   -0.1640   -0.8860 H       1  UNL1        0.0000
     40 H          -3.8750   -1.8720    1.1050 H       1  UNL1        0.0000
     41 H          -4.0570   -1.8220   -0.6650 H       1  UNL1        0.0000
     42 H          -4.7470    0.5560   -0.5250 H       1  UNL1        0.0000
     43 H          -4.5650    0.5050    1.2450 H       1  UNL1        0.0000
     44 H          -2.1640   -0.0560    0.9810 H       1  UNL1        0.0000
     45 H          -2.3460   -0.0050   -0.7890 H       1  UNL1        0.0000
     46 H           0.5220    5.1660   -0.0400 H       1  UNL1        0.0000
     47 H          -0.9830    6.1110    1.0370 H       1  UNL1        0.0000
     48 H          -1.1650    6.1620   -0.7330 H       1  UNL1        0.0000
     49 H          -2.5650    6.4930    0.3150 H       1  UNL1        0.0000
     50 H          -0.4200    0.2930   -0.0730 H       1  UNL1        0.0000
     51 H           4.6400    3.0900   -0.5250 H       1  UNL1        0.0000
     52 H           4.3140   -0.0510    0.8750 H       1  UNL1        0.0000
     53 H           4.0520   -4.3180   -1.5830 H       1  UNL1        0.0000
     54 H           2.1190   -2.7950   -1.5600 H       1  UNL1        0.0000
     55 H           1.0980   -0.8120   -0.3380 H       1  UNL1        0.0000
@<TRIPOS>BOND
     1     1     2    1
     2     1     6    1
     3     1    32    1
     4     1    33    1
     5     2     3    1
     6     2    34    1
     7     2    35    1
     8     3     4    1
     9     4     5    1
    10     4    36    1
    11     4    37    1
    12     5     6    1
    13     5    38    1
    14     5    39    1
    15     6     7    1
    16     7     8    1
    17     7    40    1
    18     7    41    1
    19     8     9    1
    20     8    42    1
    21     8    43    1
    22     9    10    1
    23     9    44    1
    24     9    45    1
    25    10    11    1
    26    11    12   ar
    27    11    16   ar
    28    12    13   ar
    29    12    14    1
    30    13    18   ar
    31    13    46    1
    32    14    15    1
    33    15    47    1
    34    15    48    1
    35    15    49    1
    36    16    17   ar
    37    16    50    1
    38    17    18   ar
    39    17    22   ar
    40    18    19   ar
    41    19    20   ar
    42    20    21   ar
    43    20    51    1
    44    21    22   ar
    45    22    23    1
    46    23    24    1
    47    23    55    1
    48    24    25   ar
    49    24    31   ar
    50    25    26   ar
    51    25    52    1
    52    26    27    1
    53    26    28   ar
    54    28    29    1
    55    28    30   ar
    56    30    31   ar
    57    30    53    1
    58    31    54    1
