@<TRIPOS>MOLECULE
1C9
 58 61 0 0 0
SMALL
GASTEIGER

@<TRIPOS>ATOM
      1 C           0.6470    2.9360    0.1780 C.ar    1  UNL1        0.0000
      2 C           0.2210    4.2600    0.3630 C.ar    1  UNL1        0.0000
      3 C          -1.1200    4.5690    0.4010 C.ar    1  UNL1        0.0000
      4 C          -2.0700    3.5510    0.2550 C.ar    1  UNL1        0.0000
      5 C          -1.6390    2.2140    0.0690 C.ar    1  UNL1        0.0000
      6 C          -0.2710    1.9190    0.0330 C.ar    1  UNL1        0.0000
      7 N          -3.3880    3.8030    0.2920 N.ar    1  UNL1        0.0000
      8 C          -4.2560    2.8300    0.1580 C.ar    1  UNL1        0.0000
      9 N          -3.9010    1.5680   -0.0280 N.ar    1  UNL1        0.0000
     10 C          -2.6250    1.2080   -0.0750 C.ar    1  UNL1        0.0000
     11 N          -2.2680   -0.1130   -0.2590 N.pl3   1  UNL1        0.0000
     12 C          -3.2540   -1.1050   -0.2990 C.ar    1  UNL1        0.0000
     13 C          -2.9950   -2.3630    0.2290 C.ar    1  UNL1        0.0000
     14 C          -3.9690   -3.3430    0.1830 C.ar    1  UNL1        0.0000
     15 C          -5.2010   -3.0700   -0.3880 C.ar    1  UNL1        0.0000
     16 C          -5.4600   -1.8160   -0.9140 C.ar    1  UNL1        0.0000
     17 C          -4.4900   -0.8340   -0.8700 C.ar    1  UNL1        0.0000
     18 F          -6.1520   -4.0290   -0.4310 F       1  UNL1        0.0000
     19 *          -3.6470   -4.9170    0.8420 Du      1  UNL1        0.0000
     20 O           1.1420    5.2490    0.5040 O.3     1  UNL1        0.0000
     21 C           0.6460    6.5760    0.6890 C.3     1  UNL1        0.0000
     22 N           2.0160    2.6450    0.1420 N.am    1  UNL1        0.0000
     23 C           2.4550    1.5480   -0.5060 C.2     1  UNL1        0.0000
     24 C           3.8760    1.1760   -0.4410 C.2     1  UNL1        0.0000
     25 C           4.3100    0.0930   -1.0810 C.2     1  UNL1        0.0000
     26 C           5.7660   -0.2890   -1.0140 C.3     1  UNL1        0.0000
     27 N           5.8890   -1.6710   -0.5320 N.3     1  UNL1        0.0000
     28 O           1.6760    0.8670   -1.1450 O.2     1  UNL1        0.0000
     29 C           7.2660   -2.1590   -0.6770 C.3     1  UNL1        0.0000
     30 C           7.3250   -3.6420   -0.3030 C.3     1  UNL1        0.0000
     31 C           6.8510   -3.8180    1.1420 C.3     1  UNL1        0.0000
     32 C           5.4320   -3.2580    1.2770 C.3     1  UNL1        0.0000
     33 C           5.4280   -1.7860    0.8580 C.3     1  UNL1        0.0000
     34 H           0.0620    0.9020   -0.1090 H       1  UNL1        0.0000
     35 H          -5.3090    3.0700    0.1880 H       1  UNL1        0.0000
     36 H          -4.6930    0.1450   -1.2800 H       1  UNL1        0.0000
     37 H           4.5680    1.7810    0.1260 H       1  UNL1        0.0000
     38 H          -6.4220   -1.6050   -1.3580 H       1  UNL1        0.0000
     39 H          -1.4380    5.5910    0.5430 H       1  UNL1        0.0000
     40 H          -2.0340   -2.5760    0.6730 H       1  UNL1        0.0000
     41 H           0.0410    6.8610   -0.1720 H       1  UNL1        0.0000
     42 H           0.0360    6.6140    1.5910 H       1  UNL1        0.0000
     43 H           1.4840    7.2660    0.7880 H       1  UNL1        0.0000
     44 H           3.6190   -0.5120   -1.6480 H       1  UNL1        0.0000
     45 H           6.2080   -0.2100   -2.0070 H       1  UNL1        0.0000
     46 H           6.2870    0.3820   -0.3310 H       1  UNL1        0.0000
     47 H          -1.3340   -0.3530   -0.3610 H       1  UNL1        0.0000
     48 H           2.6480    3.2330    0.5840 H       1  UNL1        0.0000
     49 H           7.5900   -2.0320   -1.7100 H       1  UNL1        0.0000
     50 H           7.9240   -1.5920   -0.0180 H       1  UNL1        0.0000
     51 H           6.6790   -4.2110   -0.9700 H       1  UNL1        0.0000
     52 H           8.3510   -4.0000   -0.3960 H       1  UNL1        0.0000
     53 H           6.8510   -4.8770    1.3990 H       1  UNL1        0.0000
     54 H           7.5210   -3.2800    1.8130 H       1  UNL1        0.0000
     55 H           4.7560   -3.8210    0.6350 H       1  UNL1        0.0000
     56 H           5.1050   -3.3410    2.3140 H       1  UNL1        0.0000
     57 H           6.0940   -1.2200    1.5090 H       1  UNL1        0.0000
     58 H           4.4170   -1.3880    0.9390 H       1  UNL1        0.0000
@<TRIPOS>BOND
     1     1     6   ar
     2     1    22    1
     3     2     1   ar
     4     3     4   ar
     5     3     2   ar
     6     3    39    1
     7     4     5   ar
     8     5     6   ar
     9     5    10   ar
    10     6    34    1
    11     7     4   ar
    12     7     8   ar
    13     8     9   ar
    14     8    35    1
    15     9    10   ar
    16    10    11    1
    17    11    12    1
    18    11    47    1
    19    12    13   ar
    20    12    17   ar
    21    13    14   ar
    22    13    40    1
    23    14    19    1
    24    14    15   ar
    25    15    18    1
    26    16    15   ar
    27    16    38    1
    28    17    16   ar
    29    17    36    1
    30    20     2    1
    31    21    20    1
    32    21    41    1
    33    21    42    1
    34    21    43    1
    35    22    23   am
    36    22    48    1
    37    23    24    1
    38    23    28    2
    39    24    25    2
    40    24    37    1
    41    25    26    1
    42    25    44    1
    43    26    27    1
    44    26    45    1
    45    26    46    1
    46    27    29    1
    47    27    33    1
    48    29    30    1
    49    29    49    1
    50    29    50    1
    51    30    31    1
    52    30    51    1
    53    30    52    1
    54    31    32    1
    55    31    53    1
    56    31    54    1
    57    32    33    1
    58    32    55    1
    59    32    56    1
    60    33    57    1
    61    33    58    1
