@<TRIPOS>MOLECULE
KJQ
 52 56 0 0 0
SMALL
GASTEIGER

@<TRIPOS>ATOM
      1 C           0.5780   -1.6280    0.0840 C.ar    1  UNL1        0.0878
      2 C           1.4190   -0.4270    0.0230 C.ar    1  UNL1        0.0406
      3 N          -1.2110   -3.1450    0.1200 N.ar    1  UNL1       -0.2201
      4 C          -0.3450   -4.1330    0.2480 C.ar    1  UNL1        0.1219
      5 C          -0.7990   -1.8820    0.0390 C.ar    1  UNL1        0.1340
      6 C           1.4640   -2.7110    0.2130 C.ar    1  UNL1        0.2331
      7 C           2.7090   -0.8730    0.1170 C.ar    1  UNL1        0.1460
      8 C          -5.0230   -0.0850    1.1460 C.ar    1  UNL1       -0.0567
      9 C          -5.7250    1.0230    1.5830 C.ar    1  UNL1       -0.0614
     10 C          -5.3150    2.2910    1.2120 C.ar    1  UNL1       -0.0617
     11 C          -4.2050    2.4500    0.4050 C.ar    1  UNL1       -0.0614
     12 C          -3.5030    1.3410   -0.0320 C.ar    1  UNL1       -0.0567
     13 C          -3.9120    0.0740    0.3390 C.ar    1  UNL1       -0.0251
     14 CA         -3.1440   -1.1340   -0.1320 C.3     1  UNL1        0.0702
     15 C          -3.5520   -1.4700   -1.5670 C.3     1  UNL1        0.0666
     16 O          -3.3700   -0.3210   -2.3960 O.3     1  UNL1       -0.3928
     17 N          -1.7080   -0.8470   -0.0860 N.pl3   1  UNL1       -0.3194
     18 N           0.9560   -3.9380    0.2900 N.ar    1  UNL1       -0.2005
     19 O           2.7140   -2.2170    0.2280 O.2     1  UNL1       -0.4360
     20 C           3.9100   -0.0160    0.1000 C.ar    1  UNL1        0.0180
     21 C           4.9170   -0.2000    1.0500 C.ar    1  UNL1       -0.0511
     22 C           6.0370    0.6050    1.0280 C.ar    1  UNL1       -0.0611
     23 C           6.1640    1.5930    0.0680 C.ar    1  UNL1       -0.0617
     24 C           5.1700    1.7810   -0.8770 C.ar    1  UNL1       -0.0611
     25 C           4.0480    0.9800   -0.8710 C.ar    1  UNL1       -0.0511
     26 C           0.9660    0.9760   -0.1130 C.ar    1  UNL1       -0.0135
     27 C           1.1430    1.8740    0.9390 C.ar    1  UNL1       -0.0539
     28 C           0.7190    3.1810    0.8060 C.ar    1  UNL1       -0.0612
     29 C           0.1190    3.6000   -0.3680 C.ar    1  UNL1       -0.0617
     30 C          -0.0580    2.7140   -1.4160 C.ar    1  UNL1       -0.0612
     31 C           0.3660    1.4070   -1.2970 C.ar    1  UNL1       -0.0539
     32 H          -0.7190   -5.1440    0.3110 H       1  UNL1        0.1049
     33 H          -5.3400   -1.0750    1.4400 H       1  UNL1        0.0621
     34 H          -6.5930    0.8990    2.2130 H       1  UNL1        0.0618
     35 H          -5.8640    3.1560    1.5520 H       1  UNL1        0.0618
     36 H          -3.8850    3.4400    0.1140 H       1  UNL1        0.0618
     37 H          -2.6350    1.4650   -0.6630 H       1  UNL1        0.0621
     38 HA         -3.3660   -1.9810    0.5170 H       1  UNL1        0.0571
     39 H1         -2.9340   -2.2880   -1.9390 H       1  UNL1        0.0579
     40 H2         -4.6000   -1.7700   -1.5860 H       1  UNL1        0.0579
     41 H          -3.6090   -0.4620   -3.3220 H       1  UNL1        0.2095
     42 H          -1.3940    0.0690   -0.1450 H       1  UNL1        0.1482
     43 H           4.8190   -0.9700    1.8010 H       1  UNL1        0.0625
     44 H           6.8160    0.4640    1.7630 H       1  UNL1        0.0618
     45 H           7.0430    2.2200    0.0550 H       1  UNL1        0.0618
     46 H           5.2760    2.5540   -1.6240 H       1  UNL1        0.0618
     47 H           3.2760    1.1240   -1.6120 H       1  UNL1        0.0625
     48 H           1.6100    1.5480    1.8570 H       1  UNL1        0.0624
     49 H           0.8540    3.8770    1.6210 H       1  UNL1        0.0618
     50 H          -0.2120    4.6230   -0.4670 H       1  UNL1        0.0618
     51 H          -0.5270    3.0470   -2.3300 H       1  UNL1        0.0618
     52 H           0.2270    0.7160   -2.1160 H       1  UNL1        0.0624
@<TRIPOS>BOND
     1     1     6   ar
     2     1     2   ar
     3     2     7   ar
     4     3     5   ar
     5     3     4   ar
     6     4    18   ar
     7     4    32    1
     8     5     1   ar
     9     6    19   ar
    10     7    20    1
    11     8    13   ar
    12     8    33    1
    13     9    10   ar
    14     9     8   ar
    15     9    34    1
    16    10    11   ar
    17    10    35    1
    18    11    12   ar
    19    11    36    1
    20    12    37    1
    21    13    12   ar
    22    13    14    1
    23    14    17    1
    24    14    38    1
    25    15    14    1
    26    15    16    1
    27    15    39    1
    28    15    40    1
    29    16    41    1
    30    17     5    1
    31    17    42    1
    32    18     6   ar
    33    19     7   ar
    34    20    21   ar
    35    20    25   ar
    36    21    22   ar
    37    21    43    1
    38    22    23   ar
    39    22    44    1
    40    23    45    1
    41    24    23   ar
    42    24    46    1
    43    25    24   ar
    44    25    47    1
    45    26    27   ar
    46    26     2    1
    47    27    48    1
    48    28    27   ar
    49    28    49    1
    50    29    28   ar
    51    29    50    1
    52    30    29   ar
    53    30    31   ar
    54    30    51    1
    55    31    26   ar
    56    31    52    1
