@<TRIPOS>MOLECULE
4YV
29 33 0 0 0
SMALL
NO_CHARGES

@<TRIPOS>ATOM
     1 C4         -51.5420    -2.3570   -28.0720 C.ar     1 LIG 0.0000
     2 C5         -52.8370    -1.6180   -27.7150 C.ar     1 LIG 0.0000
     3 C11        -56.1550     0.4280   -26.5290 C.ar     1 LIG 0.0000
     4 C7         -52.0000    -1.3110   -25.3070 C.ar     1 LIG 0.0000
     5 C8         -50.6720    -1.9570   -25.7080 C.ar     1 LIG 0.0000
     6 C9         -54.1300    -0.5800   -25.9650 C.ar     1 LIG 0.0000
     7 C12        -56.0640     1.2490   -25.4210 C.ar     1 LIG 0.0000
     8 C13        -54.9450     1.1220   -24.5880 C.ar     1 LIG 0.0000
     9 C3         -50.3980    -1.7740   -27.2150 C.ar     1 LIG 0.0000
    10 C1         -48.6660    -3.5600   -27.3500 C.ar     1 LIG 0.0000
    11 O2         -49.0710    -2.1980   -27.5940 O.2      1 LIG 0.0000
    12 N6         -53.1330    -1.5190   -26.2510 N.ar     1 LIG 0.0000
    13 N10        -55.1980    -0.4590   -26.7630 N.ar     1 LIG 0.0000
    14 N14        -54.0110     0.2140   -24.8930 N.ar     1 LIG 0.0000
    15 N15        -54.8680     1.9500   -23.4710 N.ar     1 LIG 0.0000
    16 C16        -54.2050     1.6880   -22.2690 C.ar     1 LIG 0.0000
    17 C17        -53.2060     0.7130   -22.1660 C.ar     1 LIG 0.0000
    18 C18        -52.5730     0.5140   -20.9410 C.ar     1 LIG 0.0000
    19 C19        -52.9440     1.3460   -19.8530 C.ar     1 LIG 0.0000
    20 C20        -53.9410     2.3180   -20.0450 C.ar     1 LIG 0.0000
    21 N21        -54.5330     2.4510   -21.2220 N.ar     1 LIG 0.0000
    22 N22        -52.1790     0.9680   -18.7940 N.ar     1 LIG 0.0000
    23 C23        -51.3900    -0.0030   -19.1520 C.ar     1 LIG 0.0000
    24 N24        -51.5880    -0.3310   -20.4670 N.ar     1 LIG 0.0000
    25 C25        -50.8640    -1.3500   -21.2530 C.ar     1 LIG 0.0000
    26 C26        -49.8550    -0.6720   -22.2060 C.ar     1 LIG 0.0000
    27 C27        -48.6170    -0.4410   -21.3110 C.ar     1 LIG 0.0000
    28 C28        -48.5420    -1.7710   -20.5150 C.ar     1 LIG 0.0000
    29 C29        -49.9980    -2.2850   -20.3890 C.ar     1 LIG 0.0000
@<TRIPOS>BOND
     1    1    2 1
     2    1    9 1
     3    2   12 1
     4   11   10 1
     5   11    9 1
     6    9    5 1
     7   13    3 2
     8   13    6 1
     9    3    7 1
    10   12    6 1
    11   12    4 1
    12    6   14 2
    13    5    4 1
    14    7    8 2
    15   14    8 1
    16    8   15 1
    17   15   16 1
    18   16   17 2
    19   16   21 1
    20   26   27 1
    21   26   25 1
    22   17   18 1
    23   27   28 1
    24   25   24 1
    25   25   29 1
    26   21   20 2
    27   18   24 1
    28   18   19 2
    29   28   29 1
    30   24   23 1
    31   20   19 1
    32   19   22 1
    33   23   22 2
