@<TRIPOS>MOLECULE
4YW
30 33 0 0 0
SMALL
NO_CHARGES

@<TRIPOS>ATOM
     1 C4         -54.7130     1.5010   -21.2730 C.ar     1 LIG 0.0000
     2 C5         -55.7040     2.4670   -21.4950 C.ar     1 LIG 0.0000
     3 C11        -52.6590    -1.1820   -22.6950 C.ar     1 LIG 0.0000
     4 C7         -55.9480     1.8120   -23.7270 C.ar     1 LIG 0.0000
     5 C8         -54.9470     0.8420   -23.5880 C.ar     1 LIG 0.0000
     6 C9         -54.3180     0.6690   -22.3480 C.ar     1 LIG 0.0000
     7 C12        -51.1620    -0.9400   -22.9180 C.ar     1 LIG 0.0000
     8 C13        -53.0010    -2.6250   -22.3120 C.ar     1 LIG 0.0000
     9 N3         -53.9640     1.1390   -20.2020 N.ar     1 LIG 0.0000
    10 C1         -52.1870    -0.4060   -19.5120 C.ar     1 LIG 0.0000
    11 C2         -53.1510     0.1760   -20.5240 C.ar     1 LIG 0.0000
    12 N6         -56.2710     2.5860   -22.6870 N.ar     1 LIG 0.0000
    13 N10        -53.3300    -0.1650   -21.8550 N.ar     1 LIG 0.0000
    14 N14        -56.6090     2.0600   -24.9420 N.ar     1 LIG 0.0000
    15 C15        -56.6920     1.2170   -26.0480 C.ar     1 LIG 0.0000
    16 C16        -57.7530     1.3750   -26.9540 C.ar     1 LIG 0.0000
    17 C17        -57.8170     0.5370   -28.0540 C.ar     1 LIG 0.0000
    18 N18        -56.8870    -0.4030   -28.2100 N.ar     1 LIG 0.0000
    19 C19        -55.8740    -0.5470   -27.3480 C.ar     1 LIG 0.0000
    20 N20        -55.7840     0.2660   -26.2910 N.ar     1 LIG 0.0000
    21 N21        -54.9390    -1.5700   -27.5340 N.ar     1 LIG 0.0000
    22 C22        -54.5250    -1.6730   -28.9600 C.ar     1 LIG 0.0000
    23 C23        -53.3440    -2.6210   -29.2000 C.ar     1 LIG 0.0000
    24 C24        -52.2430    -2.1580   -28.2430 C.ar     1 LIG 0.0000
    25 C25        -52.6570    -2.4560   -26.7950 C.ar     1 LIG 0.0000
    26 C26        -53.8860    -1.5920   -26.4770 C.ar     1 LIG 0.0000
    27 S27        -50.5560    -2.6080   -28.7530 S.2      1 LIG 0.0000
    28 O28        -50.1000    -3.6880   -27.9470 O.2      1 LIG 0.0000
    29 O29        -50.6000    -2.7890   -30.1620 O.2      1 LIG 0.0000
    30 C30        -49.4980    -1.1770   -28.3760 C.ar     1 LIG 0.0000
@<TRIPOS>BOND
     1   29   27 2
     2   23   22 1
     3   23   24 1
     4   22   21 1
     5   27   30 1
     6   27   24 1
     7   27   28 2
     8   24   25 1
     9   18   17 2
    10   18   19 1
    11   17   16 1
    12   21   19 1
    13   21   26 1
    14   19   20 2
    15   16   15 2
    16   25   26 1
    17   20   15 1
    18   15   14 1
    19   14    4 1
    20    4    5 2
    21    4   12 1
    22    5    6 1
    23    7    3 1
    24    3    8 1
    25    3   13 1
    26   12    2 2
    27    6   13 1
    28    6    1 2
    29   13   11 1
    30    2    1 1
    31    1    9 1
    32   11    9 2
    33   11   10 1
