@<TRIPOS>MOLECULE
4YX
31 34 0 0 0
SMALL
NO_CHARGES

@<TRIPOS>ATOM
     1 C4         -52.7300     1.3400   -19.7870 C.ar     1 LIG 0.0000
     2 C5         -53.7190     2.2970   -19.9760 C.ar     1 LIG 0.0000
     3 C11        -50.7840    -1.2780   -21.3360 C.ar     1 LIG 0.0000
     4 C7         -53.9970     1.6700   -22.2130 C.ar     1 LIG 0.0000
     5 C8         -53.0060     0.7000   -22.1340 C.ar     1 LIG 0.0000
     6 C9         -52.3660     0.5340   -20.8950 C.ar     1 LIG 0.0000
     7 C12        -49.3450    -0.9350   -21.6970 C.ar     1 LIG 0.0000
     8 C13        -51.0860    -2.7420   -21.0570 C.ar     1 LIG 0.0000
     9 N3         -51.9620     0.9610   -18.7290 N.ar     1 LIG 0.0000
    10 C1         -50.2140    -0.6470   -18.1260 C.ar     1 LIG 0.0000
    11 C2         -51.1810    -0.0150   -19.0960 C.ar     1 LIG 0.0000
    12 N6         -54.3050     2.4290   -21.1600 N.ar     1 LIG 0.0000
    13 N10        -51.3890    -0.3070   -20.4310 N.ar     1 LIG 0.0000
    14 N14        -54.6960     1.9350   -23.3780 N.ar     1 LIG 0.0000
    15 C15        -54.7860     1.1170   -24.4820 C.ar     1 LIG 0.0000
    16 C16        -55.9270     1.2060   -25.2850 C.ar     1 LIG 0.0000
    17 C17        -55.9870     0.3840   -26.4020 C.ar     1 LIG 0.0000
    18 N18        -54.9710    -0.4310   -26.6580 N.ar     1 LIG 0.0000
    19 C19        -53.8910    -0.4730   -25.8910 C.ar     1 LIG 0.0000
    20 N20        -53.8000     0.2860   -24.8160 N.ar     1 LIG 0.0000
    21 N21        -52.8520    -1.3450   -26.1790 N.ar     1 LIG 0.0000
    22 C22        -52.5660    -1.6570   -27.5970 C.ar     1 LIG 0.0000
    23 C23        -51.9310    -3.0490   -27.6180 C.ar     1 LIG 0.0000
    24 C24        -50.6760    -3.1080   -26.7170 C.ar     1 LIG 0.0000
    25 C25        -50.9320    -2.5400   -25.3000 C.ar     1 LIG 0.0000
    26 C26        -51.6460    -1.1690   -25.3540 C.ar     1 LIG 0.0000
    27 C27        -50.2630    -4.5790   -26.5570 C.ar     1 LIG 0.0000
    28 C28        -49.7130    -5.1270   -27.8850 C.ar     1 LIG 0.0000
    29 N29        -49.1760    -6.4810   -27.7120 N.ar     1 LIG 0.0000
    30 O30        -49.6490    -2.3510   -27.3940 O.2      1 LIG 0.0000
    31 C31        -48.4320    -2.0840   -26.6810 C.ar     1 LIG 0.0000
@<TRIPOS>BOND
     1   28   29 1
     2   28   27 1
     3   23   22 1
     4   23   24 1
     5   22   21 1
     6   30   24 1
     7   30   31 1
     8   24   27 1
     9   24   25 1
    10   18   17 2
    11   18   19 1
    12   17   16 1
    13   21   19 1
    14   21   26 1
    15   19   20 2
    16   26   25 1
    17   16   15 2
    18   20   15 1
    19   15   14 1
    20   14    4 1
    21    4    5 2
    22    4   12 1
    23    5    6 1
    24    7    3 1
    25    3    8 1
    26    3   13 1
    27   12    2 2
    28    6   13 1
    29    6    1 2
    30   13   11 1
    31    2    1 1
    32    1    9 1
    33   11    9 2
    34   11   10 1
