@<TRIPOS>MOLECULE
4Z8
28 30 0 0 0
SMALL
NO_CHARGES

@<TRIPOS>ATOM
     1 C4         -52.7840     1.5370   -19.3620 C.ar     1 LIG 0.0000
     2 C5         -53.7480     2.4970   -19.6950 C.ar     1 LIG 0.0000
     3 C11        -50.5890    -1.2760   -20.3250 C.ar     1 LIG 0.0000
     4 C7         -53.8730     1.7240   -21.8930 C.ar     1 LIG 0.0000
     5 C8         -52.8930     0.7500   -21.6510 C.ar     1 LIG 0.0000
     6 C9         -52.3360     0.6320   -20.3640 C.ar     1 LIG 0.0000
     7 C12        -51.4300    -2.3860   -20.9680 C.ar     1 LIG 0.0000
     8 C13        -49.5080    -0.7450   -21.2710 C.ar     1 LIG 0.0000
     9 N3         -52.1060     1.2470   -18.2230 N.ar     1 LIG 0.0000
    10 C1         -50.3980    -0.3090   -17.3570 C.ar     1 LIG 0.0000
    11 C2         -51.2960     0.2520   -18.4330 C.ar     1 LIG 0.0000
    12 N6         -54.2560     2.5440   -20.9140 N.ar     1 LIG 0.0000
    13 N10        -51.3910    -0.1800   -19.7360 N.ar     1 LIG 0.0000
    14 N14        -54.5000     1.9380   -23.1310 N.ar     1 LIG 0.0000
    15 C15        -54.5270     1.1190   -24.2560 C.ar     1 LIG 0.0000
    16 C16        -55.6330     1.1620   -25.1240 C.ar     1 LIG 0.0000
    17 C17        -55.6200     0.3330   -26.2400 C.ar     1 LIG 0.0000
    18 N18        -54.5700    -0.4650   -26.4540 N.ar     1 LIG 0.0000
    19 C19        -53.5430    -0.4940   -25.6070 C.ar     1 LIG 0.0000
    20 N20        -53.5100     0.3020   -24.5500 N.ar     1 LIG 0.0000
    21 N21        -52.4410    -1.2840   -25.8610 N.ar     1 LIG 0.0000
    22 C22        -52.2180    -2.5520   -25.1530 C.ar     1 LIG 0.0000
    23 C23        -50.9280    -3.2700   -25.6050 C.ar     1 LIG 0.0000
    24 C24        -50.7370    -3.1550   -27.1290 C.ar     1 LIG 0.0000
    25 C25        -49.7450    -2.6010   -24.9020 C.ar     1 LIG 0.0000
    26 C26        -50.9650    -4.7320   -25.1810 C.ar     1 LIG 0.0000
    27 O27        -51.4460    -5.0580   -24.1060 O.2      1 LIG 0.0000
    28 N28        -50.4470    -5.7080   -25.9660 N.ar     1 LIG 0.0000
@<TRIPOS>BOND
     1   24   23 1
     2   18   17 2
     3   18   19 1
     4   17   16 1
     5   28   26 1
     6   21   19 1
     7   21   22 1
     8   19   20 2
     9   23   26 1
    10   23   22 1
    11   23   25 1
    12   26   27 2
    13   16   15 2
    14   20   15 1
    15   15   14 1
    16   14    4 1
    17    4    5 2
    18    4   12 1
    19    5    6 1
    20    8    3 1
    21    7    3 1
    22   12    2 2
    23    6   13 1
    24    6    1 2
    25    3   13 1
    26   13   11 1
    27    2    1 1
    28    1    9 1
    29   11    9 2
    30   11   10 1
