@<TRIPOS>MOLECULE
4ZB
29 32 0 0 0
SMALL
NO_CHARGES

@<TRIPOS>ATOM
     1 C4         -53.0750     1.5580   -19.6130 C.ar     1 LIG 0.0000
     2 C5         -54.0750     2.5200   -19.8400 C.ar     1 LIG 0.0000
     3 C11        -51.0540    -1.0920   -21.1080 C.ar     1 LIG 0.0000
     4 C7         -54.3070     1.8440   -22.0850 C.ar     1 LIG 0.0000
     5 C8         -53.2790     0.9140   -21.9500 C.ar     1 LIG 0.0000
     6 C9         -52.6700     0.7400   -20.7020 C.ar     1 LIG 0.0000
     7 C12        -49.5520    -0.8910   -21.3220 C.ar     1 LIG 0.0000
     8 C13        -51.4850    -2.5300   -20.8210 C.ar     1 LIG 0.0000
     9 N3         -52.3240     1.1770   -18.5410 N.ar     1 LIG 0.0000
    10 C1         -50.5770    -0.4100   -17.8750 C.ar     1 LIG 0.0000
    11 C2         -51.5270     0.1970   -18.8760 C.ar     1 LIG 0.0000
    12 N6         -54.6540     2.6060   -21.0330 N.ar     1 LIG 0.0000
    13 N10        -51.6900    -0.1000   -20.2220 N.ar     1 LIG 0.0000
    14 N14        -54.9700     2.0530   -23.3080 N.ar     1 LIG 0.0000
    15 C15        -55.0130     1.1970   -24.4050 C.ar     1 LIG 0.0000
    16 C16        -56.1600     1.1320   -25.2140 C.ar     1 LIG 0.0000
    17 C17        -56.1390     0.2810   -26.3160 C.ar     1 LIG 0.0000
    18 N18        -55.0380    -0.4320   -26.5810 N.ar     1 LIG 0.0000
    19 C19        -53.9750    -0.3920   -25.7730 C.ar     1 LIG 0.0000
    20 N20        -53.9650     0.4450   -24.7370 N.ar     1 LIG 0.0000
    21 N21        -52.7850    -1.0430   -26.0900 N.ar     1 LIG 0.0000
    22 C22        -51.8100    -1.2230   -24.9800 C.ar     1 LIG 0.0000
    23 C23        -50.6580    -1.9690   -25.7030 C.ar     1 LIG 0.0000
    24 C24        -51.4320    -2.9640   -26.6030 C.ar     1 LIG 0.0000
    25 C25        -52.8090    -2.3030   -26.8630 C.ar     1 LIG 0.0000
    26 C26        -50.7000    -3.0580   -27.9490 C.ar     1 LIG 0.0000
    27 C27        -51.5790    -4.2940   -25.8580 C.ar     1 LIG 0.0000
    28 O28        -52.3010    -4.3900   -24.8680 O.2      1 LIG 0.0000
    29 N29        -50.9010    -5.3990   -26.2470 N.ar     1 LIG 0.0000
@<TRIPOS>BOND
     1   26   24 1
     2   25   24 1
     3   25   21 1
     4   24   27 1
     5   24   23 1
     6   18   17 2
     7   18   19 1
     8   17   16 1
     9   29   27 1
    10   21   19 1
    11   21   22 1
    12   27   28 2
    13   19   20 2
    14   23   22 1
    15   16   15 2
    16   20   15 1
    17   15   14 1
    18   14    4 1
    19    4    5 2
    20    4   12 1
    21    5    6 1
    22    7    3 1
    23    3    8 1
    24    3   13 1
    25   12    2 2
    26    6   13 1
    27    6    1 2
    28   13   11 1
    29    2    1 1
    30    1    9 1
    31   11    9 2
    32   11   10 1
