@<TRIPOS>MOLECULE
4ZG
29 31 0 0 0
SMALL
NO_CHARGES

@<TRIPOS>ATOM
     1 C4         -54.3970     1.6160   -21.0740 C.ar     1 LIG 0.0000
     2 C5         -55.3900     2.5560   -21.3850 C.ar     1 LIG 0.0000
     3 C11        -52.1870    -1.0430   -22.3030 C.ar     1 LIG 0.0000
     4 C7         -55.4720     1.8510   -23.6080 C.ar     1 LIG 0.0000
     5 C8         -54.4510     0.9160   -23.3860 C.ar     1 LIG 0.0000
     6 C9         -53.9100     0.7760   -22.1020 C.ar     1 LIG 0.0000
     7 C12        -50.7000    -0.7210   -22.4950 C.ar     1 LIG 0.0000
     8 C13        -52.4620    -2.4900   -21.8840 C.ar     1 LIG 0.0000
     9 N3         -53.7200     1.2850   -19.9450 N.ar     1 LIG 0.0000
    10 C1         -51.9650    -0.2220   -19.1090 C.ar     1 LIG 0.0000
    11 C2         -52.8670     0.3310   -20.1910 C.ar     1 LIG 0.0000
    12 N6         -55.8920     2.6320   -22.6070 N.ar     1 LIG 0.0000
    13 N10        -52.9440    -0.0310   -21.5270 N.ar     1 LIG 0.0000
    14 N14        -56.0410     2.0660   -24.8730 N.ar     1 LIG 0.0000
    15 C15        -56.0580     1.1740   -25.9340 C.ar     1 LIG 0.0000
    16 C16        -57.1330     1.2110   -26.8370 C.ar     1 LIG 0.0000
    17 C17        -57.1410     0.2910   -27.8790 C.ar     1 LIG 0.0000
    18 N18        -56.1330    -0.5760   -28.0090 N.ar     1 LIG 0.0000
    19 C19        -55.1260    -0.5980   -27.1410 C.ar     1 LIG 0.0000
    20 N20        -55.0850     0.2720   -26.1250 N.ar     1 LIG 0.0000
    21 N21        -54.1270    -1.5430   -27.3100 N.ar     1 LIG 0.0000
    22 C22        -52.9540    -1.6160   -26.4250 C.ar     1 LIG 0.0000
    23 C23        -52.2460    -2.9770   -26.4950 C.ar     1 LIG 0.0000
    24 C24        -53.0810    -4.0420   -25.7600 C.ar     1 LIG 0.0000
    25 C25        -50.9020    -2.8170   -25.7690 C.ar     1 LIG 0.0000
    26 S26        -52.0020    -3.4120   -28.2510 S.2      1 LIG 0.0000
    27 O27        -53.2720    -3.7090   -28.8270 O.2      1 LIG 0.0000
    28 O28        -51.2010    -2.3880   -28.8490 O.2      1 LIG 0.0000
    29 C29        -51.0480    -4.9630   -28.2630 C.ar     1 LIG 0.0000
@<TRIPOS>BOND
     1   28   26 2
     2   27   26 2
     3   29   26 1
     4   26   23 1
     5   18   17 2
     6   18   19 1
     7   17   16 1
     8   21   19 1
     9   21   22 1
    10   19   20 2
    11   16   15 2
    12   23   22 1
    13   23   25 1
    14   23   24 1
    15   20   15 1
    16   15   14 1
    17   14    4 1
    18    4    5 2
    19    4   12 1
    20    5    6 1
    21   12    2 2
    22    7    3 1
    23    3    8 1
    24    3   13 1
    25    6   13 1
    26    6    1 2
    27   13   11 1
    28    2    1 1
    29    1    9 1
    30   11    9 2
    31   11   10 1
