@<TRIPOS>MOLECULE
4ZH
29 31 0 0 0
SMALL
NO_CHARGES

@<TRIPOS>ATOM
     1 C4         -54.2690     1.3930   -21.0150 C.ar     1 LIG 0.0000
     2 C5         -55.2370     2.3870   -21.2280 C.ar     1 LIG 0.0000
     3 C11        -52.2580    -1.2760   -22.4910 C.ar     1 LIG 0.0000
     4 C7         -55.4830     1.7980   -23.4800 C.ar     1 LIG 0.0000
     5 C8         -54.4940     0.8090   -23.3500 C.ar     1 LIG 0.0000
     6 C9         -53.8870     0.5840   -22.1080 C.ar     1 LIG 0.0000
     7 C12        -52.6970    -2.7290   -22.3600 C.ar     1 LIG 0.0000
     8 C13        -50.8160    -0.9720   -22.9060 C.ar     1 LIG 0.0000
     9 N3         -53.5400     0.9720   -19.9470 N.ar     1 LIG 0.0000
    10 C1         -51.8030    -0.6690   -19.3070 C.ar     1 LIG 0.0000
    11 C2         -52.7500    -0.0060   -20.2890 C.ar     1 LIG 0.0000
    12 N6         -55.7980     2.5480   -22.4190 N.ar     1 LIG 0.0000
    13 N10        -52.9320    -0.2920   -21.6260 N.ar     1 LIG 0.0000
    14 N14        -56.1430     2.0630   -24.7050 N.ar     1 LIG 0.0000
    15 C15        -56.1600     1.2080   -25.7970 C.ar     1 LIG 0.0000
    16 C16        -57.2130     1.1600   -26.7440 C.ar     1 LIG 0.0000
    17 C17        -57.1070     0.2090   -27.7750 C.ar     1 LIG 0.0000
    18 N18        -56.0250    -0.6060   -27.8560 N.ar     1 LIG 0.0000
    19 C19        -55.0790    -0.5330   -26.9170 C.ar     1 LIG 0.0000
    20 N20        -55.1370     0.3750   -25.9490 N.ar     1 LIG 0.0000
    21 O21        -53.9140    -1.2090   -26.9400 O.2      1 LIG 0.0000
    22 C22        -53.7850    -2.5970   -27.1580 C.ar     1 LIG 0.0000
    23 C23        -52.3440    -2.8720   -27.5790 C.ar     1 LIG 0.0000
    24 C24        -51.3790    -2.7980   -26.3890 C.ar     1 LIG 0.0000
    25 C25        -52.4070    -4.3340   -28.0240 C.ar     1 LIG 0.0000
    26 S26        -51.7840    -1.7550   -28.9280 S.2      1 LIG 0.0000
    27 O27        -52.8290    -1.5520   -29.8710 O.2      1 LIG 0.0000
    28 O28        -50.5550    -2.2500   -29.4160 O.2      1 LIG 0.0000
    29 C29        -51.4920    -0.1300   -28.2220 C.ar     1 LIG 0.0000
@<TRIPOS>BOND
     1   27   26 2
     2   28   26 2
     3   26   29 1
     4   26   23 1
     5   25   23 1
     6   18   17 2
     7   18   19 1
     8   17   16 1
     9   23   22 1
    10   23   24 1
    11   22   21 1
    12   21   19 1
    13   19   20 2
    14   16   15 2
    15   20   15 1
    16   15   14 1
    17   14    4 1
    18    4    5 2
    19    4   12 1
    20    5    6 1
    21    8    3 1
    22    3    7 1
    23    3   13 1
    24   12    2 2
    25    6   13 1
    26    6    1 2
    27   13   11 1
    28    2    1 1
    29    1    9 1
    30   11    9 2
    31   11   10 1
