@<TRIPOS>MOLECULE
4ZJ
29 32 0 0 0
SMALL
NO_CHARGES

@<TRIPOS>ATOM
     1 C4         -52.7160     1.3730   -19.6110 C.ar     1 LIG 0.0000
     2 C5         -53.7120     2.3380   -19.7850 C.ar     1 LIG 0.0000
     3 C11        -50.7120    -1.1740   -21.2660 C.ar     1 LIG 0.0000
     4 C7         -53.9860     1.7650   -22.0390 C.ar     1 LIG 0.0000
     5 C8         -52.9670     0.8260   -21.9580 C.ar     1 LIG 0.0000
     6 C9         -52.3360     0.6060   -20.7330 C.ar     1 LIG 0.0000
     7 C12        -51.2020    -2.6190   -21.1340 C.ar     1 LIG 0.0000
     8 C13        -49.2340    -0.9420   -21.5560 C.ar     1 LIG 0.0000
     9 N3         -51.9310     0.9620   -18.5800 N.ar     1 LIG 0.0000
    10 C1         -50.1270    -0.6150   -18.0300 C.ar     1 LIG 0.0000
    11 C2         -51.1090     0.0310   -18.9770 C.ar     1 LIG 0.0000
    12 N6         -54.3140     2.4820   -20.9610 N.ar     1 LIG 0.0000
    13 N10        -51.3300    -0.2340   -20.3180 N.ar     1 LIG 0.0000
    14 N14        -54.6320     2.0420   -23.2530 N.ar     1 LIG 0.0000
    15 C15        -54.7720     1.1860   -24.3440 C.ar     1 LIG 0.0000
    16 C16        -55.9330     1.2570   -25.1350 C.ar     1 LIG 0.0000
    17 C17        -56.0550     0.4000   -26.2200 C.ar     1 LIG 0.0000
    18 N18        -55.0700    -0.4610   -26.4710 N.ar     1 LIG 0.0000
    19 C19        -53.9730    -0.5350   -25.7030 C.ar     1 LIG 0.0000
    20 N20        -53.8260     0.2990   -24.6680 N.ar     1 LIG 0.0000
    21 N21        -52.9610    -1.4520   -25.9940 N.ar     1 LIG 0.0000
    22 C22        -51.7870    -1.5820   -25.0880 C.ar     1 LIG 0.0000
    23 C23        -50.4760    -1.5250   -25.8940 C.ar     1 LIG 0.0000
    24 C24        -50.5320    -2.5790   -27.0240 C.ar     1 LIG 0.0000
    25 C25        -51.7000    -2.2680   -27.9810 C.ar     1 LIG 0.0000
    26 C26        -53.0320    -2.2840   -27.2260 C.ar     1 LIG 0.0000
    27 F27        -51.5560    -0.9550   -28.4310 F        1 LIG 0.0000
    28 O28        -49.3080    -2.5650   -27.7710 O.2      1 LIG 0.0000
    29 C29        -48.4450    -3.6800   -27.5440 C.ar     1 LIG 0.0000
@<TRIPOS>BOND
     1   27   25 1
     2   25   26 1
     3   25   24 1
     4   28   29 1
     5   28   24 1
     6   26   21 1
     7   24   23 1
     8   18   17 2
     9   18   19 1
    10   17   16 1
    11   21   19 1
    12   21   22 1
    13   23   22 1
    14   19   20 2
    15   16   15 2
    16   20   15 1
    17   15   14 1
    18   14    4 1
    19    4    5 2
    20    4   12 1
    21    5    6 1
    22    8    3 1
    23    3    7 1
    24    3   13 1
    25   12    2 2
    26    6   13 1
    27    6    1 2
    28   13   11 1
    29    2    1 1
    30    1    9 1
    31   11    9 2
    32   11   10 1
