@<TRIPOS>MOLECULE
4ZQ
34 37 0 0 0
SMALL
NO_CHARGES

@<TRIPOS>ATOM
     1 C14        -49.5290    -0.9330   -21.9370 C.ar     1 LIG 0.0000
     2 C5         -52.7010     1.1850   -19.6160 C.ar     1 LIG 0.0000
     3 C6         -53.6990     2.1450   -19.7830 C.ar     1 LIG 0.0000
     4 C8         -53.9630     1.5540   -22.0310 C.ar     1 LIG 0.0000
     5 C9         -52.9340     0.6070   -21.9630 C.ar     1 LIG 0.0000
     6 C10        -52.3000     0.3960   -20.7280 C.ar     1 LIG 0.0000
     7 C12        -50.5780    -1.4870   -20.9850 C.ar     1 LIG 0.0000
     8 C13        -51.4850    -2.5990   -21.5440 C.ar     1 LIG 0.0000
     9 C3         -51.1220    -0.1330   -18.9190 C.ar     1 LIG 0.0000
    10 C1         -50.0070    -0.1520   -16.6200 C.ar     1 LIG 0.0000
    11 C2         -50.1210    -0.8110   -17.9990 C.ar     1 LIG 0.0000
    12 N4         -51.9480     0.8060   -18.5630 N.ar     1 LIG 0.0000
    13 N7         -54.2950     2.2700   -20.9560 N.ar     1 LIG 0.0000
    14 N11        -51.3020    -0.4340   -20.2480 N.ar     1 LIG 0.0000
    15 F15        -48.7110    -0.0380   -21.2590 F        1 LIG 0.0000
    16 F16        -48.7580    -1.9750   -22.4320 F        1 LIG 0.0000
    17 F17        -50.1300    -0.2570   -22.9890 F        1 LIG 0.0000
    18 N18        -54.6470     1.8740   -23.2090 N.ar     1 LIG 0.0000
    19 C19        -54.8220     1.1100   -24.3530 C.ar     1 LIG 0.0000
    20 C20        -56.0020     1.2570   -25.1000 C.ar     1 LIG 0.0000
    21 C21        -56.1520     0.4760   -26.2450 C.ar     1 LIG 0.0000
    22 N22        -55.1840    -0.3760   -26.5810 N.ar     1 LIG 0.0000
    23 C23        -54.0720    -0.5150   -25.8420 C.ar     1 LIG 0.0000
    24 N24        -53.8870     0.2600   -24.7720 N.ar     1 LIG 0.0000
    25 N25        -53.0250    -1.3500   -26.2420 N.ar     1 LIG 0.0000
    26 C26        -52.0410    -1.8280   -25.2400 C.ar     1 LIG 0.0000
    27 C27        -50.6300    -1.8160   -25.8790 C.ar     1 LIG 0.0000
    28 C28        -50.6230    -2.6120   -27.2070 C.ar     1 LIG 0.0000
    29 C29        -51.7110    -2.1110   -28.1830 C.ar     1 LIG 0.0000
    30 C30        -53.0940    -2.0810   -27.5270 C.ar     1 LIG 0.0000
    31 F31        -51.4170    -0.7950   -28.5290 F        1 LIG 0.0000
    32 O32        -49.3540    -2.4510   -27.8440 O.2      1 LIG 0.0000
    33 C33        -48.5140    -3.6060   -27.7360 C.ar     1 LIG 0.0000
    34 O34        -50.5620    -2.1560   -17.8340 O.2      1 LIG 0.0000
@<TRIPOS>BOND
     1   31   29 1
     2   29   30 1
     3   29   28 1
     4   32   33 1
     5   32   28 1
     6   30   25 1
     7   28   27 1
     8   22   21 2
     9   22   23 1
    10   21   20 1
    11   25   23 1
    12   25   26 1
    13   27   26 1
    14   23   24 2
    15   20   19 2
    16   24   19 1
    17   19   18 1
    18   18    4 1
    19   17    1 1
    20   16    1 1
    21    4    5 2
    22    4   13 1
    23    5    6 1
    24    1   15 1
    25    1    7 1
    26    8    7 1
    27    7   14 1
    28   13    3 2
    29    6   14 1
    30    6    2 2
    31   14    9 1
    32    3    2 1
    33    2   12 1
    34    9   12 2
    35    9   11 1
    36   11   34 1
    37   11   10 1
