@<TRIPOS>MOLECULE
4ZR
34 37 0 0 0
SMALL
NO_CHARGES

@<TRIPOS>ATOM
     1 C14        -49.6030    -1.0120   -21.9970 C.ar     1 LIG 0.0000
     2 C5         -52.7440     1.0990   -19.7160 C.ar     1 LIG 0.0000
     3 C6         -53.7210     2.0750   -19.8810 C.ar     1 LIG 0.0000
     4 C8         -53.9950     1.4740   -22.1210 C.ar     1 LIG 0.0000
     5 C9         -53.0030     0.4930   -22.0470 C.ar     1 LIG 0.0000
     6 C10        -52.3640     0.2850   -20.8170 C.ar     1 LIG 0.0000
     7 C12        -50.6690    -1.6110   -21.0870 C.ar     1 LIG 0.0000
     8 C13        -51.5250    -2.7360   -21.6940 C.ar     1 LIG 0.0000
     9 C3         -51.1770    -0.2280   -19.0130 C.ar     1 LIG 0.0000
    10 C1         -50.1140    -0.1730   -16.7040 C.ar     1 LIG 0.0000
    11 C2         -50.1770    -0.8640   -18.0690 C.ar     1 LIG 0.0000
    12 N4         -51.9920     0.7190   -18.6640 N.ar     1 LIG 0.0000
    13 N7         -54.2970     2.2230   -21.0590 N.ar     1 LIG 0.0000
    14 N11        -51.3960    -0.5730   -20.3300 N.ar     1 LIG 0.0000
    15 F15        -50.1770    -0.3040   -23.0390 F        1 LIG 0.0000
    16 F16        -48.8080    -0.1400   -21.2550 F        1 LIG 0.0000
    17 F17        -48.8150    -2.0260   -22.5250 F        1 LIG 0.0000
    18 N18        -54.6860     1.7850   -23.2900 N.ar     1 LIG 0.0000
    19 C19        -54.8980     1.0050   -24.4110 C.ar     1 LIG 0.0000
    20 C20        -56.1110     1.1230   -25.1090 C.ar     1 LIG 0.0000
    21 C21        -56.2620     0.3410   -26.2460 C.ar     1 LIG 0.0000
    22 N22        -55.2910    -0.4890   -26.6260 N.ar     1 LIG 0.0000
    23 C23        -54.1490    -0.5950   -25.9380 C.ar     1 LIG 0.0000
    24 N24        -53.9610     0.1750   -24.8650 N.ar     1 LIG 0.0000
    25 N25        -53.0950    -1.4080   -26.3760 N.ar     1 LIG 0.0000
    26 C26        -53.1940    -2.1540   -27.6530 C.ar     1 LIG 0.0000
    27 C27        -51.8190    -2.2230   -28.3440 C.ar     1 LIG 0.0000
    28 C28        -50.7440    -2.7320   -27.3600 C.ar     1 LIG 0.0000
    29 C29        -50.6940    -1.8630   -26.0800 C.ar     1 LIG 0.0000
    30 C30        -52.0740    -1.8560   -25.3980 C.ar     1 LIG 0.0000
    31 F31        -50.3550    -0.5590   -26.4610 F        1 LIG 0.0000
    32 O32        -49.4770    -2.6730   -28.0180 O.2      1 LIG 0.0000
    33 C33        -48.5890    -3.7410   -27.6710 C.ar     1 LIG 0.0000
    34 O34        -50.5880    -2.2060   -17.8730 O.2      1 LIG 0.0000
@<TRIPOS>BOND
     1   27   26 1
     2   27   28 1
     3   32   33 1
     4   32   28 1
     5   26   25 1
     6   28   29 1
     7   22   21 2
     8   22   23 1
     9   31   29 1
    10   25   23 1
    11   25   30 1
    12   21   20 1
    13   29   30 1
    14   23   24 2
    15   20   19 2
    16   24   19 1
    17   19   18 1
    18   18    4 1
    19   15    1 1
    20   17    1 1
    21    4    5 2
    22    4   13 1
    23    5    6 1
    24    1   16 1
    25    1    7 1
    26    8    7 1
    27    7   14 1
    28   13    3 2
    29    6   14 1
    30    6    2 2
    31   14    9 1
    32    3    2 1
    33    2   12 1
    34    9   12 2
    35    9   11 1
    36   11   34 1
    37   11   10 1
