@<TRIPOS>MOLECULE
5Q4
 59 62 0 0 0
SMALL
GASTEIGER

@<TRIPOS>ATOM
      1 C          -5.0710   -1.4070    0.2110 C.3     1  UNL1        0.0250
      2 C          -6.0070    0.8250    0.1950 C.3     1  UNL1        0.0250
      3 C          -1.1930    1.5270   -0.3180 C.ar    1  UNL1        0.0338
      4 C          -7.4120    0.2350    0.0630 C.3     1  UNL1        0.0144
      5 C          -3.7460    0.4560   -0.3920 C.ar    1  UNL1        0.0299
      6 C          -2.6800   -0.2520   -0.9330 C.ar    1  UNL1       -0.0389
      7 C          -1.4080    0.2820   -0.8960 C.ar    1  UNL1       -0.0387
      8 C          -2.2580    2.2340    0.2230 C.ar    1  UNL1       -0.0387
      9 C          -3.5310    1.7010    0.1860 C.ar    1  UNL1       -0.0389
     10 N          -7.4480   -1.0870    0.7040 N.3     1  UNL1       -0.3024
     11 C          -6.4770   -1.9970    0.0800 C.3     1  UNL1        0.0144
     12 C          -8.8020   -1.6560    0.6650 C.3     1  UNL1       -0.0126
     13 N          -5.0360   -0.0850   -0.4290 N.pl3   1  UNL1       -0.3275
     14 N           0.1000    2.0650   -0.2750 N.am    1  UNL1       -0.2813
     15 C           1.1710    1.2490   -0.3080 C.2     1  UNL1        0.2553
     16 O           1.0180    0.0480   -0.4300 O.2     1  UNL1       -0.2696
     17 C           2.5220    1.8080   -0.1960 C.ar    1  UNL1        0.1222
     18 C           3.6520    1.0030   -0.4260 C.ar    1  UNL1        0.0503
     19 C           4.9300    1.5810   -0.3070 C.ar    1  UNL1       -0.0236
     20 C           5.0520    2.8860    0.0220 C.ar    1  UNL1        0.0067
     21 N           3.9610    3.6640    0.2450 N.ar    1  UNL1       -0.3284
     22 C           2.7140    3.1690    0.1400 C.ar    1  UNL1        0.2627
     23 O           1.7520    3.8890    0.3450 O.2     1  UNL1       -0.2670
     24 N           3.5120   -0.3240   -0.7600 N.pl3   1  UNL1       -0.3109
     25 C           3.8710   -1.3190    0.1570 C.ar    1  UNL1        0.0736
     26 C           4.1830   -0.9780    1.4650 C.ar    1  UNL1       -0.0370
     27 C           4.5360   -1.9620    2.3700 C.ar    1  UNL1       -0.0598
     28 C           4.5800   -3.2860    1.9740 C.ar    1  UNL1       -0.0582
     29 C           4.2700   -3.6330    0.6720 C.ar    1  UNL1       -0.0181
     30 C           3.9100   -2.6540   -0.2390 C.ar    1  UNL1        0.1411
     31 O           3.6050   -2.9940   -1.5200 O.3     1  UNL1       -0.4933
     32 C           3.6770   -4.3810   -1.8580 C.3     1  UNL1        0.0789
     33 H          -4.8160   -1.3070    1.2660 H       1  UNL1        0.0476
     34 H          -4.3520   -2.0670   -0.2760 H       1  UNL1        0.0476
     35 H          -5.9710    1.7930   -0.3050 H       1  UNL1        0.0476
     36 H          -5.7620    0.9510    1.2490 H       1  UNL1        0.0476
     37 H          -8.1310    0.8940    0.5510 H       1  UNL1        0.0442
     38 H          -7.6680    0.1350   -0.9920 H       1  UNL1        0.0442
     39 H          -2.8470   -1.2190   -1.3820 H       1  UNL1        0.0637
     40 H          -0.5790   -0.2680   -1.3160 H       1  UNL1        0.0637
     41 H          -2.0910    3.2020    0.6720 H       1  UNL1        0.0637
     42 H          -4.3600    2.2510    0.6060 H       1  UNL1        0.0637
     43 H          -6.7210   -2.1230   -0.9750 H       1  UNL1        0.0442
     44 H          -6.5130   -2.9660    0.5800 H       1  UNL1        0.0442
     45 H          -9.1220   -1.7610   -0.3720 H       1  UNL1        0.0391
     46 H          -8.7990   -2.6340    1.1450 H       1  UNL1        0.0391
     47 H          -9.4890   -0.9930    1.1920 H       1  UNL1        0.0391
     48 H           0.2230    3.0260   -0.2220 H       1  UNL1        0.1551
     49 H           5.8120    0.9830   -0.4790 H       1  UNL1        0.0651
     50 H           6.0380    3.3190    0.1100 H       1  UNL1        0.0808
     51 H           4.0840    4.5970    0.4800 H       1  UNL1        0.1683
     52 H           3.1640   -0.5710   -1.6320 H       1  UNL1        0.1523
     53 H           4.1500    0.0550    1.7770 H       1  UNL1        0.0637
     54 H           4.7790   -1.6960    3.3880 H       1  UNL1        0.0618
     55 H           4.8570   -4.0510    2.6840 H       1  UNL1        0.0619
     56 H           4.3010   -4.6690    0.3670 H       1  UNL1        0.0655
     57 H           4.6920   -4.7430   -1.6930 H       1  UNL1        0.0660
     58 H           2.9840   -4.9440   -1.2330 H       1  UNL1        0.0660
     59 H           3.4110   -4.5130   -2.9070 H       1  UNL1        0.0660
@<TRIPOS>BOND
     1     1    11    1
     2     1    33    1
     3     1    34    1
     4     2     4    1
     5     2    35    1
     6     2    36    1
     7     3     8   ar
     8     3     7   ar
     9     4    10    1
    10     4    37    1
    11     4    38    1
    12     5    13    1
    13     6     5   ar
    14     6    39    1
    15     7     6   ar
    16     7    40    1
    17     8     9   ar
    18     8    41    1
    19     9     5   ar
    20     9    42    1
    21    10    12    1
    22    11    10    1
    23    11    43    1
    24    11    44    1
    25    12    45    1
    26    12    46    1
    27    12    47    1
    28    13     2    1
    29    13     1    1
    30    14     3    1
    31    14    48    1
    32    15    14   am
    33    16    15    2
    34    17    15    1
    35    18    17   ar
    36    19    20   ar
    37    19    18   ar
    38    19    49    1
    39    20    21   ar
    40    20    50    1
    41    21    22   ar
    42    21    51    1
    43    22    17   ar
    44    22    23    2
    45    24    18    1
    46    24    52    1
    47    25    24    1
    48    25    26   ar
    49    26    53    1
    50    27    26   ar
    51    27    54    1
    52    28    27   ar
    53    28    55    1
    54    29    30   ar
    55    29    28   ar
    56    29    56    1
    57    30    25   ar
    58    31    30    1
    59    32    31    1
    60    32    57    1
    61    32    58    1
    62    32    59    1
