@<TRIPOS>MOLECULE
F62
 70 74 0 0 0
SMALL
GASTEIGER

@<TRIPOS>ATOM
      1 C          -2.0740    1.6320    0.1960 C.ar    1  UNL1        0.1532
      2 C          -1.4270    2.7150   -0.4400 C.ar    1  UNL1        0.0392
      3 C          -0.0320    2.6950   -0.5510 C.ar    1  UNL1        0.0421
      4 N           0.6240    1.6610   -0.0560 N.ar    1  UNL1       -0.2219
      5 N          -1.3360    0.6350    0.6640 N.ar    1  UNL1       -0.1958
      6 C          -6.6460   -3.7160   -3.2050 C.2     1  UNL1       -0.0938
      7 C          -6.9360   -3.4260   -1.9390 C.2     1  UNL1       -0.0066
      8 C          -6.0990   -2.4760   -1.1920 C.2     1  UNL1        0.2405
      9 O          -5.1410   -1.9550   -1.7310 O.2     1  UNL1       -0.2705
     10 N          -6.3930   -2.1820    0.0900 N.am    1  UNL1       -0.2819
     11 C          -5.5520   -1.3410    0.8250 C.ar    1  UNL1        0.0356
     12 C          -4.9170   -0.2750    0.2010 C.ar    1  UNL1       -0.0164
     13 C          -5.3550   -1.5660    2.1810 C.ar    1  UNL1       -0.0403
     14 C          -4.5250   -0.7350    2.9080 C.ar    1  UNL1       -0.0581
     15 C          -3.8870    0.3220    2.2890 C.ar    1  UNL1       -0.0376
     16 C          -4.0840    0.5570    0.9340 C.ar    1  UNL1        0.0532
     17 N          -3.4420    1.6330    0.3080 N.ar    1  UNL1       -0.2608
     18 C          -4.1740    2.6530   -0.1730 C.ar    1  UNL1        0.2576
     19 O          -5.3870    2.6190   -0.0540 O.2     1  UNL1       -0.2673
     20 C          -3.5790    3.7590   -0.8100 C.ar    1  UNL1        0.0070
     21 C          -2.2290    3.8180   -0.9590 C.ar    1  UNL1       -0.0332
     22 C          -1.5770    4.9950   -1.6380 C.3     1  UNL1       -0.0388
     23 C          -0.0170    0.6590    0.5360 C.ar    1  UNL1        0.2214
     24 N           0.7190   -0.3970    1.0360 N.pl3   1  UNL1       -0.2806
     25 C           2.1090   -0.4330    0.8500 C.ar    1  UNL1        0.0759
     26 C           2.7540   -1.6520    0.6490 C.ar    1  UNL1        0.1429
     27 C           4.1260   -1.6860    0.4650 C.ar    1  UNL1        0.0029
     28 O           2.0370   -2.8070    0.6340 O.3     1  UNL1       -0.4932
     29 C           2.7630   -4.0190    0.4230 C.3     1  UNL1        0.0789
     30 C           2.8420    0.7440    0.8600 C.ar    1  UNL1       -0.0351
     31 C           4.2110    0.7090    0.6760 C.ar    1  UNL1       -0.0387
     32 C           4.8560   -0.5040    0.4810 C.ar    1  UNL1        0.0334
     33 N           6.2430   -0.5370    0.2960 N.pl3   1  UNL1       -0.3274
     34 C           6.8130    0.8160    0.3430 C.3     1  UNL1        0.0250
     35 C           8.3350    0.7310    0.2160 C.3     1  UNL1        0.0144
     36 N           8.6820    0.0600   -1.0450 N.3     1  UNL1       -0.3024
     37 C          10.1380    0.0250   -1.2390 C.3     1  UNL1       -0.0126
     38 C           8.1130   -1.2940   -1.0920 C.3     1  UNL1        0.0144
     39 C           6.5900   -1.2080   -0.9650 C.3     1  UNL1        0.0250
     40 H           0.4950    3.5070   -1.0310 H       1  UNL1        0.0838
     41 H          -7.2610   -4.4150   -3.7530 H       1  UNL1        0.0536
     42 H          -5.7960   -3.2540   -3.6830 H       1  UNL1        0.0536
     43 H          -7.7870   -3.8890   -1.4600 H       1  UNL1        0.0663
     44 H          -7.1880   -2.5540    0.5030 H       1  UNL1        0.1551
     45 H          -5.0710   -0.0950   -0.8530 H       1  UNL1        0.0657
     46 H          -5.8520   -2.3920    2.6680 H       1  UNL1        0.0636
     47 H          -4.3730   -0.9130    3.9630 H       1  UNL1        0.0619
     48 H          -3.2390    0.9700    2.8600 H       1  UNL1        0.0638
     49 H          -4.1970    4.5620   -1.1850 H       1  UNL1        0.0675
     50 H          -2.3430    5.7060   -1.9480 H       1  UNL1        0.0278
     51 H          -0.8900    5.4800   -0.9440 H       1  UNL1        0.0278
     52 H          -1.0260    4.6500   -2.5130 H       1  UNL1        0.0278
     53 H           0.2750   -1.1130    1.5150 H       1  UNL1        0.1551
     54 H           4.6270   -2.6290    0.3100 H       1  UNL1        0.0673
     55 H           2.0740   -4.8630    0.4330 H       1  UNL1        0.0660
     56 H           3.2700   -3.9760   -0.5420 H       1  UNL1        0.0660
     57 H           3.5010   -4.1430    1.2150 H       1  UNL1        0.0660
     58 H           2.3410    1.6890    1.0120 H       1  UNL1        0.0638
     59 H           4.7800    1.6270    0.6840 H       1  UNL1        0.0637
     60 H           6.4120    1.4090   -0.4790 H       1  UNL1        0.0476
     61 H           6.5530    1.2880    1.2910 H       1  UNL1        0.0476
     62 H           8.7580    1.7350    0.2220 H       1  UNL1        0.0442
     63 H           8.7390    0.1620    1.0540 H       1  UNL1        0.0442
     64 H          10.6020   -0.5170   -0.4160 H       1  UNL1        0.0391
     65 H          10.3670   -0.4760   -2.1800 H       1  UNL1        0.0391
     66 H          10.5250    1.0440   -1.2670 H       1  UNL1        0.0391
     67 H           8.3720   -1.7650   -2.0400 H       1  UNL1        0.0442
     68 H           8.5140   -1.8860   -0.2690 H       1  UNL1        0.0442
     69 H           6.1670   -2.2130   -0.9700 H       1  UNL1        0.0476
     70 H           6.1860   -0.6390   -1.8020 H       1  UNL1        0.0476
@<TRIPOS>BOND
     1     1     5   ar
     2     2     3   ar
     3     2     1   ar
     4     3     4   ar
     5     3    40    1
     6     4    23   ar
     7     5    23   ar
     8     6     7    2
     9     6    41    1
    10     6    42    1
    11     7    43    1
    12     8     7    1
    13     8     9    2
    14    10     8   am
    15    10    44    1
    16    11    10    1
    17    11    13   ar
    18    12    11   ar
    19    12    45    1
    20    13    46    1
    21    14    13   ar
    22    14    47    1
    23    15    14   ar
    24    15    48    1
    25    16    12   ar
    26    16    15   ar
    27    17     1   ar
    28    17    16    1
    29    18    17   ar
    30    19    18    2
    31    20    21   ar
    32    20    18   ar
    33    20    49    1
    34    21     2   ar
    35    22    21    1
    36    22    50    1
    37    22    51    1
    38    22    52    1
    39    23    24    1
    40    24    25    1
    41    24    53    1
    42    25    26   ar
    43    26    28    1
    44    26    27   ar
    45    27    54    1
    46    28    29    1
    47    29    55    1
    48    29    56    1
    49    29    57    1
    50    30    25   ar
    51    30    31   ar
    52    30    58    1
    53    31    32   ar
    54    31    59    1
    55    32    27   ar
    56    32    33    1
    57    33    34    1
    58    34    35    1
    59    34    60    1
    60    34    61    1
    61    35    62    1
    62    35    63    1
    63    36    35    1
    64    36    37    1
    65    37    64    1
    66    37    65    1
    67    37    66    1
    68    38    36    1
    69    38    67    1
    70    38    68    1
    71    39    33    1
    72    39    38    1
    73    39    69    1
    74    39    70    1
