@<TRIPOS>MOLECULE
5N3
27 31 0 0 0
SMALL
NO_CHARGES

@<TRIPOS>ATOM
     1 C4         -51.3930    -1.1170   -24.8240 C.ar     1 LIG 0.0000
     2 C14        -55.5810     1.8310   -25.1950 C.ar     1 LIG 0.0000
     3 C5         -52.1070    -0.5880   -25.9020 C.ar     1 LIG 0.0000
     4 C7         -53.5250     0.4880   -24.4130 C.ar     1 LIG 0.0000
     5 C9         -54.6630     1.4150   -24.2100 C.ar     1 LIG 0.0000
     6 C10        -54.9710     2.0740   -23.0530 C.ar     1 LIG 0.0000
     7 C3         -51.8090    -0.7950   -23.5340 C.ar     1 LIG 0.0000
     8 C1         -50.0310    -0.4510   -21.8250 C.ar     1 LIG 0.0000
     9 C2         -50.8860    -1.4930   -22.5630 C.ar     1 LIG 0.0000
    10 N6         -53.1550     0.1980   -25.6510 N.ar     1 LIG 0.0000
    11 N8         -52.8640    -0.0020   -23.3660 N.ar     1 LIG 0.0000
    12 N11        -56.0480     2.8350   -23.2920 N.ar     1 LIG 0.0000
    13 N13        -56.4080     2.6650   -24.6330 N.ar     1 LIG 0.0000
    14 N15        -51.7040    -0.8790   -27.1960 N.ar     1 LIG 0.0000
    15 C16        -52.3170    -0.3730   -28.3420 C.ar     1 LIG 0.0000
    16 C17        -52.6250     1.0250   -28.6660 C.ar     1 LIG 0.0000
    17 C18        -52.4990     2.2630   -28.0050 C.ar     1 LIG 0.0000
    18 C19        -52.9100     3.4190   -28.6290 C.ar     1 LIG 0.0000
    19 C20        -53.4120     3.3920   -29.9350 C.ar     1 LIG 0.0000
    20 C21        -53.5810     2.1760   -30.5750 C.ar     1 LIG 0.0000
    21 C22        -53.1740     0.9940   -29.9640 C.ar     1 LIG 0.0000
    22 N23        -53.1860    -0.3050   -30.3760 N.ar     1 LIG 0.0000
    23 N25        -52.6480    -1.1010   -29.3700 N.ar     1 LIG 0.0000
    24 CL         -54.2180     2.0570   -32.1770 CL       1 LIG 0.0000
    25 C27        -50.1940    -2.0250   -24.7290 C.ar     1 LIG 0.0000
    26 O28        -50.0650    -2.3910   -23.3400 O.2      1 LIG 0.0000
    27 C29        -51.7030    -2.3080   -21.5560 C.ar     1 LIG 0.0000
@<TRIPOS>BOND
     1   24   20 1
     2   20   21 2
     3   20   19 1
     4   22   21 1
     5   22   23 1
     6   21   16 1
     7   19   18 2
     8   23   15 2
     9   16   15 1
    10   16   17 2
    11   18   17 1
    12   15   14 1
    13   14    3 1
    14    3   10 2
    15    3    1 1
    16   10    4 1
    17    2   13 2
    18    2    5 1
    19    1   25 1
    20    1    7 2
    21   25   26 1
    22   13   12 1
    23    4    5 1
    24    4   11 2
    25    5    6 2
    26    7   11 1
    27    7    9 1
    28   26    9 1
    29   12    6 1
    30    9    8 1
    31    9   27 1
