@<TRIPOS>MOLECULE
5N4
27 31 0 0 0
SMALL
NO_CHARGES

@<TRIPOS>ATOM
     1 C4         -51.1190    -0.9520   -24.6210 C.ar     1 LIG 0.0000
     2 C14        -54.7240     1.7880   -21.8010 C.ar     1 LIG 0.0000
     3 C5         -51.7440    -0.4470   -25.7700 C.ar     1 LIG 0.0000
     4 C11        -56.4270     2.4670   -24.9100 C.ar     1 LIG 0.0000
     5 C7         -53.3540     0.5510   -24.4070 C.ar     1 LIG 0.0000
     6 C9         -54.5890     1.3630   -24.3160 C.ar     1 LIG 0.0000
     7 C10        -55.3590     1.7240   -25.3860 C.ar     1 LIG 0.0000
     8 C3         -51.6850    -0.6700   -23.3750 C.ar     1 LIG 0.0000
     9 C1         -50.1220    -0.1900   -21.5060 C.ar     1 LIG 0.0000
    10 C2         -50.8250    -1.3030   -22.3020 C.ar     1 LIG 0.0000
    11 N6         -52.8600     0.2680   -25.6050 N.ar     1 LIG 0.0000
    12 N8         -52.7860     0.0640   -23.3140 N.ar     1 LIG 0.0000
    13 N12        -56.3170     2.5860   -23.6120 N.ar     1 LIG 0.0000
    14 N13        -55.1790     1.8890   -23.1920 N.ar     1 LIG 0.0000
    15 N15        -51.2130    -0.6850   -27.0360 N.ar     1 LIG 0.0000
    16 C16        -51.7040    -0.1170   -28.2290 C.ar     1 LIG 0.0000
    17 C17        -52.0740     1.2860   -28.5080 C.ar     1 LIG 0.0000
    18 C18        -52.1010     2.4780   -27.7580 C.ar     1 LIG 0.0000
    19 C19        -52.5440     3.6370   -28.3490 C.ar     1 LIG 0.0000
    20 C20        -52.9260     3.6680   -29.7020 C.ar     1 LIG 0.0000
    21 C21        -52.8910     2.5310   -30.4620 C.ar     1 LIG 0.0000
    22 C22        -52.4770     1.3230   -29.8700 C.ar     1 LIG 0.0000
    23 N23        -52.3510     0.0440   -30.3440 N.ar     1 LIG 0.0000
    24 N25        -51.8870    -0.7920   -29.3330 N.ar     1 LIG 0.0000
    25 C26        -49.8800    -1.7790   -24.3900 C.ar     1 LIG 0.0000
    26 O27        -49.8780    -2.1470   -22.9930 O.2      1 LIG 0.0000
    27 C28        -51.6770    -2.1740   -21.3640 C.ar     1 LIG 0.0000
@<TRIPOS>BOND
     1   21   22 2
     2   21   20 1
     3   23   22 1
     4   23   24 1
     5   22   17 1
     6   20   19 2
     7   24   16 2
     8   17   16 1
     9   17   18 2
    10   19   18 1
    11   16   15 1
    12   15    3 1
    13    3   11 2
    14    3    1 1
    15   11    5 1
    16    7    4 1
    17    7    6 2
    18    4   13 2
    19    1   25 1
    20    1    8 2
    21    5    6 1
    22    5   12 2
    23   25   26 1
    24    6   14 1
    25   13   14 1
    26    8   12 1
    27    8   10 1
    28   14    2 1
    29   26   10 1
    30   10    9 1
    31   10   27 1
