@<TRIPOS>MOLECULE
5Q2
33 36 0 0 0
SMALL
NO_CHARGES

@<TRIPOS>ATOM
     1 C4         -53.1760    -0.1460   -15.6080 C.ar     1 LIG 0.0000
     2 C6         -50.9400     0.9570   -15.8280 C.ar     1 LIG 0.0000
     3 C11        -53.4590     1.4910   -20.2650 C.ar     1 LIG 0.0000
     4 C7         -50.7720     0.8490   -14.2950 C.ar     1 LIG 0.0000
     5 C8         -52.6830     1.1350   -17.5790 C.ar     1 LIG 0.0000
     6 C9         -51.9070     0.5980   -18.6240 C.ar     1 LIG 0.0000
     7 C10        -52.2860     0.7820   -19.9530 C.ar     1 LIG 0.0000
     8 C12        -54.2340     1.9980   -19.2220 C.ar     1 LIG 0.0000
     9 C13        -53.8570     1.8260   -17.9010 C.ar     1 LIG 0.0000
    10 N2         -51.6020    -0.2580   -13.7650 N.ar     1 LIG 0.0000
    11 C3         -53.0350    -0.1100   -14.0810 C.ar     1 LIG 0.0000
    12 C1         -51.3960    -0.4830   -12.3270 C.ar     1 LIG 0.0000
    13 N5         -52.3770     0.9530   -16.2090 N.ar     1 LIG 0.0000
    14 N14        -53.9660     1.6930   -21.5690 N.ar     1 LIG 0.0000
    15 C15        -53.8600     0.8780   -22.6580 C.ar     1 LIG 0.0000
    16 O16        -53.2020    -0.1460   -22.5840 O.2      1 LIG 0.0000
    17 C17        -54.5720     1.1990   -23.9260 C.ar     1 LIG 0.0000
    18 C18        -54.3120     0.4830   -25.1430 C.ar     1 LIG 0.0000
    19 C19        -55.0540     0.8310   -26.3050 C.ar     1 LIG 0.0000
    20 C20        -55.9980     1.7960   -26.2800 C.ar     1 LIG 0.0000
    21 N21        -56.2650     2.4610   -25.1300 N.ar     1 LIG 0.0000
    22 C23        -55.6060     2.2070   -23.9720 C.ar     1 LIG 0.0000
    23 O24        -55.9300     2.8740   -22.9960 O.2      1 LIG 0.0000
    24 N25        -53.3470    -0.5210   -25.2040 N.ar     1 LIG 0.0000
    25 C26        -53.1530    -1.4860   -26.3050 C.ar     1 LIG 0.0000
    26 C27        -51.8700    -1.1600   -27.0840 C.ar     1 LIG 0.0000
    27 C28        -52.0730     0.1420   -27.8180 C.ar     1 LIG 0.0000
    28 C29        -51.8040     1.3430   -27.1620 C.ar     1 LIG 0.0000
    29 C30        -52.0640     2.5580   -27.7690 C.ar     1 LIG 0.0000
    30 C31        -52.5450     2.5620   -29.0690 C.ar     1 LIG 0.0000
    31 C32        -52.7570     1.3690   -29.7580 C.ar     1 LIG 0.0000
    32 C33        -52.5530     0.1490   -29.1250 C.ar     1 LIG 0.0000
    33 CL         -52.8310     4.0860   -29.8300 CL       1 LIG 0.0000
@<TRIPOS>BOND
     1   33   30 1
     2   31   32 2
     3   31   30 1
     4   32   27 1
     5   30   29 2
     6   27   28 2
     7   27   26 1
     8   29   28 1
     9   26   25 1
    10   25   24 1
    11   19   20 2
    12   19   18 1
    13   20   21 1
    14   24   18 1
    15   18   17 2
    16   21   22 1
    17   22   17 1
    18   22   23 2
    19   17   15 1
    20   15   16 2
    21   15   14 1
    22   14    3 1
    23    3    7 2
    24    3    8 1
    25    7    6 1
    26    8    9 2
    27    6    5 2
    28    9    5 1
    29    5   13 1
    30   13    2 1
    31   13    1 1
    32    2    4 1
    33    1   11 1
    34    4   10 1
    35   11   10 1
    36   10   12 1
