@<TRIPOS>MOLECULE
5Q3
31 34 0 0 0
SMALL
NO_CHARGES

@<TRIPOS>ATOM
     1 C4         -51.3240    -0.6650   -14.6890 C.ar     1 LIG 0.0000
     2 C6         -49.0200     0.0670   -15.4110 C.ar     1 LIG 0.0000
     3 C11        -52.1820     0.7450   -19.3360 C.ar     1 LIG 0.0000
     4 C7         -48.5470    -0.1230   -13.9550 C.ar     1 LIG 0.0000
     5 C8         -51.0250     0.4280   -16.7900 C.ar     1 LIG 0.0000
     6 C9         -52.1670     1.2230   -16.9600 C.ar     1 LIG 0.0000
     7 C10        -52.7360     1.3720   -18.2150 C.ar     1 LIG 0.0000
     8 C12        -51.0420    -0.0540   -19.1790 C.ar     1 LIG 0.0000
     9 C13        -50.4850    -0.2270   -17.9130 C.ar     1 LIG 0.0000
    10 N2         -49.3990    -1.1170   -13.2580 N.ar     1 LIG 0.0000
    11 C3         -50.8310    -0.7490   -13.2360 C.ar     1 LIG 0.0000
    12 C1         -48.9220    -1.4040   -11.8970 C.ar     1 LIG 0.0000
    13 N5         -50.4950     0.2780   -15.4880 N.ar     1 LIG 0.0000
    14 N14        -52.8520     0.9630   -20.5610 N.ar     1 LIG 0.0000
    15 C15        -52.8490     0.2430   -21.7180 C.ar     1 LIG 0.0000
    16 O16        -52.1750    -0.7740   -21.8020 O.2      1 LIG 0.0000
    17 C17        -53.7430     0.6480   -22.8410 C.ar     1 LIG 0.0000
    18 C18        -53.6610     0.0560   -24.1550 C.ar     1 LIG 0.0000
    19 C19        -54.5880     0.4810   -25.1440 C.ar     1 LIG 0.0000
    20 C20        -55.5420     1.4020   -24.8820 C.ar     1 LIG 0.0000
    21 N21        -55.6210     1.9570   -23.6480 N.ar     1 LIG 0.0000
    22 C23        -54.7850     1.6300   -22.6340 C.ar     1 LIG 0.0000
    23 O24        -54.9620     2.2160   -21.5690 O.2      1 LIG 0.0000
    24 N25        -52.6980    -0.9070   -24.4660 N.ar     1 LIG 0.0000
    25 C26        -52.4780    -1.6100   -25.6660 C.ar     1 LIG 0.0000
    26 C27        -51.5140    -2.6400   -25.6690 C.ar     1 LIG 0.0000
    27 C28        -51.2730    -3.3470   -26.8490 C.ar     1 LIG 0.0000
    28 N29        -51.9450    -3.0290   -27.9540 N.ar     1 LIG 0.0000
    29 C30        -52.8380    -2.0430   -27.9370 C.ar     1 LIG 0.0000
    30 N31        -53.1030    -1.3430   -26.8280 N.ar     1 LIG 0.0000
    31 N32        -53.5160    -1.7530   -29.1000 N.ar     1 LIG 0.0000
@<TRIPOS>BOND
     1   31   29 1
     2   28   29 2
     3   28   27 1
     4   29   30 1
     5   27   26 2
     6   30   25 2
     7   26   25 1
     8   25   24 1
     9   19   20 2
    10   19   18 1
    11   20   21 1
    12   24   18 1
    13   18   17 2
    14   21   22 1
    15   17   22 1
    16   17   15 1
    17   22   23 2
    18   16   15 2
    19   15   14 1
    20   14    3 1
    21    3    8 2
    22    3    7 1
    23    8    9 1
    24    7    6 2
    25    9    5 2
    26    6    5 1
    27    5   13 1
    28   13    2 1
    29   13    1 1
    30    2    4 1
    31    1   11 1
    32    4   10 1
    33   10   11 1
    34   10   12 1
