@<TRIPOS>MOLECULE
5Q4
32 35 0 0 0
SMALL
NO_CHARGES

@<TRIPOS>ATOM
     1 C4         -51.9450    -0.1330   -14.2280 C.ar     1 LIG 0.0000
     2 C6         -49.5210     0.0920   -14.8220 C.ar     1 LIG 0.0000
     3 C11        -52.2440     0.9430   -19.0190 C.ar     1 LIG 0.0000
     4 C7         -49.1770    -0.1520   -13.3390 C.ar     1 LIG 0.0000
     5 C8         -51.3170     0.7120   -16.3600 C.ar     1 LIG 0.0000
     6 C9         -52.2790     1.6740   -16.7040 C.ar     1 LIG 0.0000
     7 C10        -52.7340     1.7840   -18.0130 C.ar     1 LIG 0.0000
     8 C12        -51.3040    -0.0400   -18.6770 C.ar     1 LIG 0.0000
     9 C13        -50.8470    -0.1540   -17.3680 C.ar     1 LIG 0.0000
    10 N2         -50.2410    -0.9440   -12.6840 N.ar     1 LIG 0.0000
    11 C3         -51.5560    -0.2800   -12.7520 C.ar     1 LIG 0.0000
    12 C1         -49.8910    -1.2660   -11.2920 C.ar     1 LIG 0.0000
    13 N5         -50.9100     0.5970   -15.0080 N.ar     1 LIG 0.0000
    14 N14        -52.7930     1.0990   -20.3150 N.ar     1 LIG 0.0000
    15 C15        -52.4950     0.4600   -21.4810 C.ar     1 LIG 0.0000
    16 O16        -51.6190    -0.3850   -21.4880 O.2      1 LIG 0.0000
    17 C17        -53.2570     0.7530   -22.7320 C.ar     1 LIG 0.0000
    18 C18        -52.9250     0.1460   -23.9920 C.ar     1 LIG 0.0000
    19 C19        -53.6940     0.4600   -25.1400 C.ar     1 LIG 0.0000
    20 C20        -54.7480     1.3040   -25.0580 C.ar     1 LIG 0.0000
    21 N21        -55.0750     1.8930   -23.8780 N.ar     1 LIG 0.0000
    22 C23        -54.3860     1.6500   -22.7350 C.ar     1 LIG 0.0000
    23 O24        -54.7590     2.2370   -21.7310 O.2      1 LIG 0.0000
    24 N25        -51.8460    -0.7060   -24.1590 N.ar     1 LIG 0.0000
    25 C26        -51.9070    -2.0780   -24.4620 C.ar     1 LIG 0.0000
    26 C27        -52.1060    -2.9990   -23.4270 C.ar     1 LIG 0.0000
    27 C28        -52.1240    -4.3650   -23.6890 C.ar     1 LIG 0.0000
    28 C29        -51.8990    -4.8260   -24.9820 C.ar     1 LIG 0.0000
    29 C30        -51.6630    -3.9240   -26.0160 C.ar     1 LIG 0.0000
    30 C31        -51.6690    -2.5430   -25.7720 C.ar     1 LIG 0.0000
    31 O32        -51.4240    -1.6580   -26.7900 O.2      1 LIG 0.0000
    32 C33        -52.3560    -1.5390   -27.8760 C.ar     1 LIG 0.0000
@<TRIPOS>BOND
     1   32   31 1
     2   31   30 1
     3   29   30 2
     4   29   28 1
     5   30   25 1
     6   19   20 2
     7   19   18 1
     8   20   21 1
     9   28   27 2
    10   25   24 1
    11   25   26 2
    12   24   18 1
    13   18   17 2
    14   21   22 1
    15   27   26 1
    16   22   17 1
    17   22   23 2
    18   17   15 1
    19   16   15 2
    20   15   14 1
    21   14    3 1
    22    3    8 2
    23    3    7 1
    24    8    9 1
    25    7    6 2
    26    9    5 2
    27    6    5 1
    28    5   13 1
    29   13    2 1
    30   13    1 1
    31    2    4 1
    32    1   11 1
    33    4   10 1
    34   11   10 1
    35   10   12 1
