5Q4
     RDKit          3D

 32 35  0  0  0  0  0  0  0  0999 V2000
   -5.0710   -1.4070    0.2110 C   0  0  0  0  0  0  0  0  0  0  0  0
   -6.0070    0.8250    0.1950 C   0  0  0  0  0  0  0  0  0  0  0  0
   -1.1930    1.5270   -0.3180 C   0  0  0  0  0  0  0  0  0  0  0  0
   -7.4120    0.2350    0.0630 C   0  0  0  0  0  0  0  0  0  0  0  0
   -3.7460    0.4560   -0.3920 C   0  0  0  0  0  0  0  0  0  0  0  0
   -2.6800   -0.2520   -0.9330 C   0  0  0  0  0  0  0  0  0  0  0  0
   -1.4080    0.2820   -0.8960 C   0  0  0  0  0  0  0  0  0  0  0  0
   -2.2580    2.2340    0.2230 C   0  0  0  0  0  0  0  0  0  0  0  0
   -3.5310    1.7010    0.1860 C   0  0  0  0  0  0  0  0  0  0  0  0
   -7.4480   -1.0870    0.7040 N   0  0  0  0  0  0  0  0  0  0  0  0
   -6.4770   -1.9970    0.0800 C   0  0  0  0  0  0  0  0  0  0  0  0
   -8.8020   -1.6560    0.6650 C   0  0  0  0  0  0  0  0  0  0  0  0
   -5.0360   -0.0850   -0.4290 N   0  0  0  0  0  0  0  0  0  0  0  0
    0.1000    2.0650   -0.2750 N   0  0  0  0  0  0  0  0  0  0  0  0
    1.1710    1.2490   -0.3080 C   0  0  0  0  0  0  0  0  0  0  0  0
    1.0180    0.0480   -0.4300 O   0  0  0  0  0  0  0  0  0  0  0  0
    2.5220    1.8080   -0.1960 C   0  0  0  0  0  0  0  0  0  0  0  0
    3.6520    1.0030   -0.4260 C   0  0  0  0  0  0  0  0  0  0  0  0
    4.9300    1.5810   -0.3070 C   0  0  0  0  0  0  0  0  0  0  0  0
    5.0520    2.8860    0.0220 C   0  0  0  0  0  0  0  0  0  0  0  0
    3.9610    3.6640    0.2450 N   0  0  0  0  0  0  0  0  0  0  0  0
    2.7140    3.1690    0.1400 C   0  0  0  0  0  0  0  0  0  0  0  0
    1.7520    3.8890    0.3450 O   0  0  0  0  0  0  0  0  0  0  0  0
    3.5120   -0.3240   -0.7600 N   0  0  0  0  0  0  0  0  0  0  0  0
    3.8710   -1.3190    0.1570 C   0  0  0  0  0  0  0  0  0  0  0  0
    4.1830   -0.9780    1.4650 C   0  0  0  0  0  0  0  0  0  0  0  0
    4.5360   -1.9620    2.3700 C   0  0  0  0  0  0  0  0  0  0  0  0
    4.5800   -3.2860    1.9740 C   0  0  0  0  0  0  0  0  0  0  0  0
    4.2700   -3.6330    0.6720 C   0  0  0  0  0  0  0  0  0  0  0  0
    3.9100   -2.6540   -0.2390 C   0  0  0  0  0  0  0  0  0  0  0  0
    3.6050   -2.9940   -1.5200 O   0  0  0  0  0  0  0  0  0  0  0  0
    3.6770   -4.3810   -1.8580 C   0  0  0  0  0  0  0  0  0  0  0  0
  1 11  1  0
  2  4  1  0
  3  8  2  0
  3  7  1  0
  4 10  1  0
  5 13  1  0
  6  5  1  0
  7  6  2  0
  8  9  1  0
  9  5  2  0
 10 12  1  0
 11 10  1  0
 13  2  1  0
 13  1  1  0
 14  3  1  0
 15 14  1  0
 16 15  2  0
 17 15  1  0
 18 17  2  0
 19 20  2  0
 19 18  1  0
 20 21  1  0
 21 22  1  0
 22 17  1  0
 22 23  2  0
 24 18  1  0
 25 24  1  0
 25 26  2  0
 27 26  1  0
 28 27  2  0
 29 30  2  0
 29 28  1  0
 30 25  1  0
 31 30  1  0
 32 31  1  0
M  END
$$$$
