5Q4
  CCTOOLS-0919241037

 59 62  0  0  0  0  0  0  0  0999 V2000
   -5.0710   -1.4070    0.2110 C   0  0  0  0  0
   -6.0070    0.8250    0.1950 C   0  0  0  0  0
   -1.1930    1.5270   -0.3180 C   0  0  0  0  0
   -7.4120    0.2350    0.0630 C   0  0  0  0  0
   -3.7460    0.4560   -0.3920 C   0  0  0  0  0
   -2.6800   -0.2520   -0.9330 C   0  0  0  0  0
   -1.4080    0.2820   -0.8960 C   0  0  0  0  0
   -2.2580    2.2340    0.2230 C   0  0  0  0  0
   -3.5310    1.7010    0.1860 C   0  0  0  0  0
   -7.4480   -1.0870    0.7040 N   0  0  0  0  0
   -6.4770   -1.9970    0.0800 C   0  0  0  0  0
   -8.8020   -1.6560    0.6650 C   0  0  0  0  0
   -5.0360   -0.0850   -0.4290 N   0  0  0  0  0
    0.1000    2.0650   -0.2750 N   0  0  0  0  0
    1.1710    1.2490   -0.3080 C   0  0  0  0  0
    1.0180    0.0480   -0.4300 O   0  0  0  0  0
    2.5220    1.8080   -0.1960 C   0  0  0  0  0
    3.6520    1.0030   -0.4260 C   0  0  0  0  0
    4.9300    1.5810   -0.3070 C   0  0  0  0  0
    5.0520    2.8860    0.0220 C   0  0  0  0  0
    3.9610    3.6640    0.2450 N   0  0  0  0  0
    2.7140    3.1690    0.1400 C   0  0  0  0  0
    1.7520    3.8890    0.3450 O   0  0  0  0  0
    3.5120   -0.3240   -0.7600 N   0  0  0  0  0
    3.8710   -1.3190    0.1570 C   0  0  0  0  0
    4.1830   -0.9780    1.4650 C   0  0  0  0  0
    4.5360   -1.9620    2.3700 C   0  0  0  0  0
    4.5800   -3.2860    1.9740 C   0  0  0  0  0
    4.2700   -3.6330    0.6720 C   0  0  0  0  0
    3.9100   -2.6540   -0.2390 C   0  0  0  0  0
    3.6050   -2.9940   -1.5200 O   0  0  0  0  0
    3.6770   -4.3810   -1.8580 C   0  0  0  0  0
   -4.8160   -1.3070    1.2660 H   0  0  0  0  0
   -4.3520   -2.0670   -0.2760 H   0  0  0  0  0
   -5.9710    1.7930   -0.3050 H   0  0  0  0  0
   -5.7620    0.9510    1.2490 H   0  0  0  0  0
   -8.1310    0.8940    0.5510 H   0  0  0  0  0
   -7.6680    0.1350   -0.9920 H   0  0  0  0  0
   -2.8470   -1.2190   -1.3820 H   0  0  0  0  0
   -0.5790   -0.2680   -1.3160 H   0  0  0  0  0
   -2.0910    3.2020    0.6720 H   0  0  0  0  0
   -4.3600    2.2510    0.6060 H   0  0  0  0  0
   -6.7210   -2.1230   -0.9750 H   0  0  0  0  0
   -6.5130   -2.9660    0.5800 H   0  0  0  0  0
   -9.1220   -1.7610   -0.3720 H   0  0  0  0  0
   -8.7990   -2.6340    1.1450 H   0  0  0  0  0
   -9.4890   -0.9930    1.1920 H   0  0  0  0  0
    0.2230    3.0260   -0.2220 H   0  0  0  0  0
    5.8120    0.9830   -0.4790 H   0  0  0  0  0
    6.0380    3.3190    0.1100 H   0  0  0  0  0
    4.0840    4.5970    0.4800 H   0  0  0  0  0
    3.1640   -0.5710   -1.6320 H   0  0  0  0  0
    4.1500    0.0550    1.7770 H   0  0  0  0  0
    4.7790   -1.6960    3.3880 H   0  0  0  0  0
    4.8570   -4.0510    2.6840 H   0  0  0  0  0
    4.3010   -4.6690    0.3670 H   0  0  0  0  0
    4.6920   -4.7430   -1.6930 H   0  0  0  0  0
    2.9840   -4.9440   -1.2330 H   0  0  0  0  0
    3.4110   -4.5130   -2.9070 H   0  0  0  0  0
  1 11  1  0  0  0
  1 33  1  0  0  0
  1 34  1  0  0  0
  2  4  1  0  0  0
  2 35  1  0  0  0
  2 36  1  0  0  0
  3  8  2  0  0  0
  3  7  1  0  0  0
  4 10  1  0  0  0
  4 37  1  0  0  0
  4 38  1  0  0  0
  5 13  1  0  0  0
  6  5  1  0  0  0
  6 39  1  0  0  0
  7  6  2  0  0  0
  7 40  1  0  0  0
  8  9  1  0  0  0
  8 41  1  0  0  0
  9  5  2  0  0  0
  9 42  1  0  0  0
 10 12  1  0  0  0
 11 10  1  0  0  0
 11 43  1  0  0  0
 11 44  1  0  0  0
 12 45  1  0  0  0
 12 46  1  0  0  0
 12 47  1  0  0  0
 13  2  1  0  0  0
 13  1  1  0  0  0
 14  3  1  0  0  0
 14 48  1  0  0  0
 15 14  1  0  0  0
 16 15  2  0  0  0
 17 15  1  0  0  0
 18 17  2  0  0  0
 19 20  2  0  0  0
 19 18  1  0  0  0
 19 49  1  0  0  0
 20 21  1  0  0  0
 20 50  1  0  0  0
 21 22  1  0  0  0
 21 51  1  0  0  0
 22 17  1  0  0  0
 22 23  2  0  0  0
 24 18  1  0  0  0
 24 52  1  0  0  0
 25 24  1  0  0  0
 25 26  2  0  0  0
 26 53  1  0  0  0
 27 26  1  0  0  0
 27 54  1  0  0  0
 28 27  2  0  0  0
 28 55  1  0  0  0
 29 30  2  0  0  0
 29 28  1  0  0  0
 29 56  1  0  0  0
 30 25  1  0  0  0
 31 30  1  0  0  0
 32 31  1  0  0  0
 32 57  1  0  0  0
 32 58  1  0  0  0
 32 59  1  0  0  0
M  END
$$$$
