@<TRIPOS>MOLECULE
8BM
 70 74 0 0 0
SMALL
GASTEIGER

@<TRIPOS>ATOM
      1 C           1.2910   -3.8090    1.2420 C.3     1  UNL1        0.0164
      2 C          -0.1020   -3.4120    1.7900 C.3     1  UNL1       -0.0172
      3 C          -0.4830   -2.2380    0.8500 C.3     1  UNL1        0.0405
      4 C           0.1170   -2.6710   -0.5040 C.3     1  UNL1        0.0331
      5 C          -2.4990   -0.8770    0.4280 C.ar    1  UNL1        0.2191
      6 C           0.5040    1.4570    0.8780 C.ar    1  UNL1       -0.0388
      7 C           2.7600    2.0140    0.2840 C.ar    1  UNL1        0.0299
      8 C           4.8990    2.6910   -0.4620 C.3     1  UNL1        0.0250
      9 C           6.3930    2.5780   -0.1470 C.3     1  UNL1        0.0144
     10 C           8.2450    1.0260    0.0080 C.3     1  UNL1       -0.0126
     11 C           4.5440    0.4680    0.4280 C.3     1  UNL1        0.0250
     12 C           3.0040   -5.2450   -0.7020 C.3     1  UNL1        0.0124
     13 C           1.9410   -4.2700   -1.1390 C.2     1  UNL1        0.2125
     14 O           1.7650   -4.0530   -2.3190 O.2     1  UNL1       -0.2759
     15 N           1.1840   -3.6410   -0.2180 N.am    1  UNL1       -0.2999
     16 N          -1.9390   -2.1010    0.7560 N.pl3   1  UNL1       -0.3090
     17 N          -1.6970    0.1560    0.2040 N.ar    1  UNL1       -0.1971
     18 C          -2.1870    1.3490   -0.1140 C.ar    1  UNL1        0.1558
     19 N          -1.3420    2.4210   -0.3460 N.pl3   1  UNL1       -0.2975
     20 C           0.0350    2.2860   -0.1330 C.ar    1  UNL1        0.0325
     21 C           1.8620    1.3240    1.0880 C.ar    1  UNL1       -0.0389
     22 C           2.2910    2.8460   -0.7250 C.ar    1  UNL1       -0.0389
     23 C           0.9330    2.9800   -0.9340 C.ar    1  UNL1       -0.0388
     24 N           4.1360    1.8780    0.4960 N.pl3   1  UNL1       -0.3275
     25 N           6.8000    1.1680   -0.2150 N.3     1  UNL1       -0.3024
     26 C           6.0370    0.3550    0.7430 C.3     1  UNL1        0.0144
     27 C          -3.5810    1.5000   -0.2090 C.ar    1  UNL1        0.1479
     28 N          -4.4080    2.5340   -0.5010 N.ar    1  UNL1       -0.2306
     29 C          -5.6430    2.1280   -0.4510 C.ar    1  UNL1        0.0986
     30 N          -5.6850    0.8040   -0.1230 N.ar    1  UNL1       -0.3123
     31 C          -6.8910   -0.0130    0.0300 C.3     1  UNL1        0.0317
     32 C          -7.7700    0.5760    1.1360 C.3     1  UNL1       -0.0444
     33 C          -7.6700   -0.0260   -1.2870 C.3     1  UNL1       -0.0444
     34 C          -4.3910    0.3790    0.0360 C.ar    1  UNL1        0.1675
     35 N          -3.8160   -0.7800    0.3440 N.ar    1  UNL1       -0.1947
     36 H           2.0600   -3.1500    1.6450 H       1  UNL1        0.0465
     37 H           1.5150   -4.8470    1.4910 H       1  UNL1        0.0465
     38 H          -0.8100   -4.2350    1.6930 H       1  UNL1        0.0299
     39 H          -0.0340   -3.0770    2.8250 H       1  UNL1        0.0299
     40 H          -0.0310   -1.3070    1.1920 H       1  UNL1        0.0514
     41 H          -0.6530   -3.1370   -1.1190 H       1  UNL1        0.0483
     42 H           0.5320   -1.8040   -1.0200 H       1  UNL1        0.0483
     43 H          -0.1940    0.9210    1.5040 H       1  UNL1        0.0637
     44 H           4.5890    3.7330   -0.3830 H       1  UNL1        0.0476
     45 H           4.7130    2.3310   -1.4740 H       1  UNL1        0.0476
     46 H           6.9630    3.1570   -0.8730 H       1  UNL1        0.0442
     47 H           6.5830    2.9630    0.8550 H       1  UNL1        0.0442
     48 H           8.5010    1.4160    0.9930 H       1  UNL1        0.0391
     49 H           8.5200   -0.0280   -0.0480 H       1  UNL1        0.0391
     50 H           8.7870    1.5830   -0.7560 H       1  UNL1        0.0391
     51 H           3.9740   -0.1110    1.1550 H       1  UNL1        0.0476
     52 H           4.3530    0.0820   -0.5740 H       1  UNL1        0.0476
     53 H           2.5760   -6.2450   -0.6360 H       1  UNL1        0.0323
     54 H           3.8170   -5.2450   -1.4280 H       1  UNL1        0.0323
     55 H           3.3890   -4.9490    0.2740 H       1  UNL1        0.0323
     56 H          -2.5100   -2.8670    0.9230 H       1  UNL1        0.1492
     57 H          -1.7040    3.2660   -0.6560 H       1  UNL1        0.1536
     58 H           2.2260    0.6830    1.8780 H       1  UNL1        0.0637
     59 H           2.9890    3.3890   -1.3450 H       1  UNL1        0.0637
     60 H           0.5690    3.6240   -1.7200 H       1  UNL1        0.0637
     61 H           6.2230    0.7150    1.7550 H       1  UNL1        0.0442
     62 H           6.3480   -0.6870    0.6650 H       1  UNL1        0.0442
     63 H          -6.5070    2.7470   -0.6410 H       1  UNL1        0.1029
     64 H          -6.6090   -1.0320    0.2950 H       1  UNL1        0.0523
     65 H          -8.0520    1.5950    0.8710 H       1  UNL1        0.0249
     66 H          -8.6670   -0.0320    1.2500 H       1  UNL1        0.0249
     67 H          -7.2150    0.5850    2.0740 H       1  UNL1        0.0249
     68 H          -8.5670   -0.6340   -1.1730 H       1  UNL1        0.0249
     69 H          -7.9520    0.9930   -1.5520 H       1  UNL1        0.0249
     70 H          -7.0440   -0.4450   -2.0750 H       1  UNL1        0.0249
@<TRIPOS>BOND
     1     1     2    1
     2     1    36    1
     3     1    37    1
     4     2    38    1
     5     2    39    1
     6     3     2    1
     7     3    40    1
     8     4    15    1
     9     4     3    1
    10     4    41    1
    11     4    42    1
    12     5    17   ar
    13     6    21   ar
    14     6    43    1
    15     7    24    1
    16     8     9    1
    17     8    44    1
    18     8    45    1
    19     9    25    1
    20     9    46    1
    21     9    47    1
    22    10    48    1
    23    10    49    1
    24    10    50    1
    25    11    26    1
    26    11    51    1
    27    11    52    1
    28    12    53    1
    29    12    54    1
    30    12    55    1
    31    13    15   am
    32    13    12    1
    33    14    13    2
    34    15     1    1
    35    16     5    1
    36    16     3    1
    37    16    56    1
    38    17    18   ar
    39    18    19    1
    40    19    20    1
    41    19    57    1
    42    20    23   ar
    43    20     6   ar
    44    21     7   ar
    45    21    58    1
    46    22     7   ar
    47    22    59    1
    48    23    22   ar
    49    23    60    1
    50    24     8    1
    51    24    11    1
    52    25    10    1
    53    26    25    1
    54    26    61    1
    55    26    62    1
    56    27    18   ar
    57    28    27   ar
    58    29    28   ar
    59    29    63    1
    60    30    29   ar
    61    30    34   ar
    62    31    30    1
    63    31    64    1
    64    32    31    1
    65    32    65    1
    66    32    66    1
    67    32    67    1
    68    33    31    1
    69    33    68    1
    70    33    69    1
    71    33    70    1
    72    34    27   ar
    73    35    34   ar
    74    35     5   ar
