@<TRIPOS>MOLECULE
7XO
 63 67 0 0 0
SMALL
GASTEIGER

@<TRIPOS>ATOM
      1 C           2.2430   -1.1930   -0.0470 C.ar    1  UNL1        0.1670
      2 C           2.1500    0.2120    0.0070 C.ar    1  UNL1        0.1280
      3 C           0.8820    0.7910    0.0510 C.ar    1  UNL1        0.0602
      4 C           4.2660   -0.2980   -0.0480 C.ar    1  UNL1        0.2023
      5 N          -0.1780    0.0000    0.0390 N.ar    1  UNL1       -0.2204
      6 N          -1.1970   -2.1030   -0.0230 N.pl3   1  UNL1       -0.2836
      7 N           1.1310   -1.9130   -0.0560 N.ar    1  UNL1       -0.1945
      8 C          -6.1520    1.6910    0.3170 C.3     1  UNL1        0.0250
      9 C          -7.5240    2.3150    0.5860 C.3     1  UNL1        0.0144
     10 N          -8.5380    1.6340   -0.2310 N.3     1  UNL1       -0.3024
     11 C          -8.2930    1.8520   -1.6630 C.3     1  UNL1       -0.0126
     12 C          -8.5860    0.1990    0.0820 C.3     1  UNL1        0.0144
     13 C          -7.2140   -0.4250   -0.1870 C.3     1  UNL1        0.0250
     14 N          -6.2000    0.2560    0.6300 N.pl3   1  UNL1       -0.3275
     15 C          -4.9430   -0.3360    0.4650 C.ar    1  UNL1        0.0299
     16 C          -3.8450    0.1620    1.1540 C.ar    1  UNL1       -0.0389
     17 C          -2.6040   -0.4220    0.9920 C.ar    1  UNL1       -0.0387
     18 C          -4.7940   -1.4250   -0.3830 C.ar    1  UNL1       -0.0389
     19 C          -3.5540   -2.0130   -0.5420 C.ar    1  UNL1       -0.0387
     20 C          -2.4540   -1.5070    0.1390 C.ar    1  UNL1        0.0337
     21 C          -0.0520   -1.3190   -0.0130 C.ar    1  UNL1        0.2214
     22 N           3.4180    0.6980    0.0040 N.ar    1  UNL1       -0.2110
     23 N           3.5870   -1.4850   -0.0860 N.ar    1  UNL1       -0.2938
     24 C           4.1810   -2.8230   -0.1480 C.3     1  UNL1        0.0334
     25 C           5.0300   -2.9460   -1.4150 C.3     1  UNL1       -0.0443
     26 C           5.0650   -3.0460    1.0810 C.3     1  UNL1       -0.0443
     27 N           5.6410   -0.1700   -0.0660 N.pl3   1  UNL1       -0.2849
     28 C           6.2250    1.1000   -0.0550 C.ar    1  UNL1        0.0335
     29 C           7.4750    1.2870    0.5200 C.ar    1  UNL1       -0.0405
     30 C           8.0490    2.5430    0.5290 C.ar    1  UNL1       -0.0600
     31 C           7.3810    3.6140   -0.0340 C.ar    1  UNL1       -0.0616
     32 C           6.1350    3.4320   -0.6070 C.ar    1  UNL1       -0.0600
     33 C           5.5580    2.1780   -0.6250 C.ar    1  UNL1       -0.0405
     34 H           0.7680    1.8640    0.0930 H       1  UNL1        0.0853
     35 H          -1.1270   -3.0630   -0.1420 H       1  UNL1        0.1550
     36 H          -5.8910    1.8250   -0.7330 H       1  UNL1        0.0476
     37 H          -5.4030    2.1750    0.9430 H       1  UNL1        0.0476
     38 H          -7.7730    2.2040    1.6410 H       1  UNL1        0.0442
     39 H          -7.4980    3.3730    0.3270 H       1  UNL1        0.0442
     40 H          -7.3110    1.4610   -1.9280 H       1  UNL1        0.0391
     41 H          -9.0580    1.3380   -2.2450 H       1  UNL1        0.0391
     42 H          -8.3290    2.9200   -1.8800 H       1  UNL1        0.0391
     43 H          -8.8470    0.0640    1.1310 H       1  UNL1        0.0442
     44 H          -9.3350   -0.2850   -0.5450 H       1  UNL1        0.0442
     45 H          -7.2390   -1.4840    0.0720 H       1  UNL1        0.0476
     46 H          -6.9650   -0.3150   -1.2420 H       1  UNL1        0.0476
     47 H          -3.9610    1.0070    1.8170 H       1  UNL1        0.0637
     48 H          -1.7510   -0.0340    1.5270 H       1  UNL1        0.0637
     49 H          -5.6480   -1.8130   -0.9190 H       1  UNL1        0.0637
     50 H          -3.4380   -2.8570   -1.2060 H       1  UNL1        0.0637
     51 H           3.3890   -3.5720   -0.1660 H       1  UNL1        0.0524
     52 H           5.8210   -2.1970   -1.3960 H       1  UNL1        0.0249
     53 H           5.4720   -3.9410   -1.4610 H       1  UNL1        0.0249
     54 H           4.4000   -2.7870   -2.2910 H       1  UNL1        0.0249
     55 H           4.4610   -2.9580    1.9840 H       1  UNL1        0.0249
     56 H           5.5070   -4.0410    1.0350 H       1  UNL1        0.0249
     57 H           5.8570   -2.2970    1.1000 H       1  UNL1        0.0249
     58 H           6.2020   -0.9610   -0.0860 H       1  UNL1        0.1550
     59 H           7.9980    0.4510    0.9610 H       1  UNL1        0.0636
     60 H           9.0220    2.6890    0.9760 H       1  UNL1        0.0618
     61 H           7.8300    4.5960   -0.0220 H       1  UNL1        0.0618
     62 H           5.6160    4.2710   -1.0460 H       1  UNL1        0.0618
     63 H           4.5860    2.0360   -1.0730 H       1  UNL1        0.0636
@<TRIPOS>BOND
     1     1     7   ar
     2     2     3   ar
     3     2     1   ar
     4     3     5   ar
     5     3    34    1
     6     4    22   ar
     7     4    23   ar
     8     5    21   ar
     9     6    20    1
    10     6    35    1
    11     7    21   ar
    12     8     9    1
    13     8    36    1
    14     8    37    1
    15     9    38    1
    16     9    39    1
    17    10     9    1
    18    10    11    1
    19    11    40    1
    20    11    41    1
    21    11    42    1
    22    12    10    1
    23    12    43    1
    24    12    44    1
    25    13    14    1
    26    13    12    1
    27    13    45    1
    28    13    46    1
    29    14     8    1
    30    15    16   ar
    31    15    14    1
    32    16    47    1
    33    17    16   ar
    34    17    48    1
    35    18    15   ar
    36    18    49    1
    37    19    20   ar
    38    19    18   ar
    39    19    50    1
    40    20    17   ar
    41    21     6    1
    42    22     2   ar
    43    23    24    1
    44    23     1   ar
    45    24    26    1
    46    24    25    1
    47    24    51    1
    48    25    52    1
    49    25    53    1
    50    25    54    1
    51    26    55    1
    52    26    56    1
    53    26    57    1
    54    27     4    1
    55    27    58    1
    56    28    27    1
    57    29    28   ar
    58    29    59    1
    59    30    29   ar
    60    30    60    1
    61    31    32   ar
    62    31    30   ar
    63    31    61    1
    64    32    33   ar
    65    32    62    1
    66    33    28   ar
    67    33    63    1
