@<TRIPOS>MOLECULE
7XR
 67 72 0 0 0
SMALL
GASTEIGER

@<TRIPOS>ATOM
      1 C           2.0070   -0.8370    0.0230 C.ar    1  UNL1        0.1670
      2 C           1.8950    0.5670   -0.0120 C.ar    1  UNL1        0.1280
      3 C           0.6190    1.1290   -0.0600 C.ar    1  UNL1        0.0602
      4 C           4.0170    0.0850    0.0580 C.ar    1  UNL1        0.2024
      5 N          -0.4300    0.3240   -0.0700 N.ar    1  UNL1       -0.2204
      6 N          -1.4200   -1.7940   -0.0500 N.pl3   1  UNL1       -0.2836
      7 N           0.9040   -1.5730    0.0090 N.ar    1  UNL1       -0.1945
      8 C          -7.4030   -0.2540   -0.9920 C.3     1  UNL1        0.0250
      9 C          -8.7550    0.4590   -1.0630 C.3     1  UNL1        0.0144
     10 N          -9.2850    0.6350    0.2970 N.3     1  UNL1       -0.3024
     11 C         -10.6190    1.2490    0.2670 C.3     1  UNL1       -0.0126
     12 C          -8.3590    1.4260    1.1210 C.3     1  UNL1        0.0144
     13 C          -7.0070    0.7130    1.1910 C.3     1  UNL1        0.0250
     14 N          -6.4770    0.5370   -0.1680 N.pl3   1  UNL1       -0.3275
     15 C          -5.2060   -0.0480   -0.1400 C.ar    1  UNL1        0.0299
     16 C          -4.1840    0.5480    0.5870 C.ar    1  UNL1       -0.0389
     17 C          -2.9300   -0.0300    0.6160 C.ar    1  UNL1       -0.0387
     18 C          -4.9690   -1.2270   -0.8330 C.ar    1  UNL1       -0.0389
     19 C          -3.7160   -1.8070   -0.8010 C.ar    1  UNL1       -0.0387
     20 C          -2.6910   -1.2060   -0.0820 C.ar    1  UNL1        0.0337
     21 C          -0.2860   -0.9940   -0.0360 C.ar    1  UNL1        0.2214
     22 N           3.1560    1.0700    0.0120 N.ar    1  UNL1       -0.2110
     23 N           3.3540   -1.1120    0.0620 N.ar    1  UNL1       -0.2933
     24 C           3.9660   -2.4420    0.1080 C.3     1  UNL1        0.0390
     25 C           4.8640   -2.5680    1.3570 C.3     1  UNL1       -0.0320
     26 C           6.0690   -3.4120    0.8740 C.3     1  UNL1       -0.0511
     27 C           6.3020   -2.8850   -0.5640 C.3     1  UNL1       -0.0511
     28 C           4.8810   -2.6440   -1.1130 C.3     1  UNL1       -0.0320
     29 N           5.3900    0.2320    0.0980 N.pl3   1  UNL1       -0.2849
     30 C           5.9600    1.5030   -0.0210 C.ar    1  UNL1        0.0335
     31 C           7.1470    1.7970    0.6390 C.ar    1  UNL1       -0.0405
     32 C           7.7080    3.0530    0.5200 C.ar    1  UNL1       -0.0600
     33 C           7.0900    4.0170   -0.2550 C.ar    1  UNL1       -0.0616
     34 C           5.9090    3.7280   -0.9130 C.ar    1  UNL1       -0.0600
     35 C           5.3450    2.4720   -0.8030 C.ar    1  UNL1       -0.0405
     36 H           0.4910    2.2010   -0.0880 H       1  UNL1        0.0853
     37 H          -1.3330   -2.7600   -0.0360 H       1  UNL1        0.1550
     38 H          -7.5340   -1.2400   -0.5470 H       1  UNL1        0.0476
     39 H          -6.9950   -0.3600   -1.9970 H       1  UNL1        0.0476
     40 H          -8.6280    1.4340   -1.5330 H       1  UNL1        0.0442
     41 H          -9.4520   -0.1400   -1.6490 H       1  UNL1        0.0442
     42 H         -11.3010    0.6090   -0.2940 H       1  UNL1        0.0391
     43 H         -10.9870    1.3680    1.2860 H       1  UNL1        0.0391
     44 H         -10.5590    2.2250   -0.2140 H       1  UNL1        0.0391
     45 H          -8.2280    2.4120    0.6750 H       1  UNL1        0.0442
     46 H          -8.7680    1.5320    2.1260 H       1  UNL1        0.0442
     47 H          -6.3100    1.3120    1.7780 H       1  UNL1        0.0476
     48 H          -7.1340   -0.2620    1.6620 H       1  UNL1        0.0476
     49 H          -4.3700    1.4630    1.1300 H       1  UNL1        0.0637
     50 H          -2.1350    0.4340    1.1810 H       1  UNL1        0.0637
     51 H          -5.7640   -1.6910   -1.3980 H       1  UNL1        0.0637
     52 H          -3.5300   -2.7220   -1.3440 H       1  UNL1        0.0637
     53 H           3.1920   -3.2090    0.1250 H       1  UNL1        0.0529
     54 H           5.1950   -1.5840    1.6890 H       1  UNL1        0.0285
     55 H           4.3330   -3.0840    2.1570 H       1  UNL1        0.0285
     56 H           6.9440   -3.2290    1.4990 H       1  UNL1        0.0266
     57 H           5.8190   -4.4730    0.8640 H       1  UNL1        0.0266
     58 H           6.8660   -1.9530   -0.5410 H       1  UNL1        0.0266
     59 H           6.8240   -3.6310   -1.1630 H       1  UNL1        0.0266
     60 H           4.5510   -3.5090   -1.6880 H       1  UNL1        0.0285
     61 H           4.8690   -1.7520   -1.7390 H       1  UNL1        0.0285
     62 H           5.9580   -0.5470    0.2070 H       1  UNL1        0.1550
     63 H           7.6290    1.0440    1.2450 H       1  UNL1        0.0636
     64 H           8.6300    3.2830    1.0330 H       1  UNL1        0.0618
     65 H           7.5290    5.0010   -0.3430 H       1  UNL1        0.0618
     66 H           5.4290    4.4830   -1.5170 H       1  UNL1        0.0618
     67 H           4.4230    2.2460   -1.3170 H       1  UNL1        0.0636
@<TRIPOS>BOND
     1     1     7   ar
     2     2     3   ar
     3     2     1   ar
     4     3     5   ar
     5     3    36    1
     6     4    23   ar
     7     5    21   ar
     8     6    20    1
     9     6    37    1
    10     7    21   ar
    11     8    14    1
    12     8     9    1
    13     8    38    1
    14     8    39    1
    15     9    10    1
    16     9    40    1
    17     9    41    1
    18    10    12    1
    19    10    11    1
    20    11    42    1
    21    11    43    1
    22    11    44    1
    23    12    45    1
    24    12    46    1
    25    13    12    1
    26    13    47    1
    27    13    48    1
    28    14    13    1
    29    15    16   ar
    30    15    14    1
    31    16    49    1
    32    17    16   ar
    33    17    50    1
    34    18    15   ar
    35    18    51    1
    36    19    20   ar
    37    19    18   ar
    38    19    52    1
    39    20    17   ar
    40    21     6    1
    41    22     4   ar
    42    22     2   ar
    43    23    24    1
    44    23     1   ar
    45    24    28    1
    46    24    25    1
    47    24    53    1
    48    25    26    1
    49    25    54    1
    50    25    55    1
    51    26    56    1
    52    26    57    1
    53    27    26    1
    54    27    58    1
    55    27    59    1
    56    28    27    1
    57    28    60    1
    58    28    61    1
    59    29     4    1
    60    29    62    1
    61    30    29    1
    62    31    30   ar
    63    31    63    1
    64    32    31   ar
    65    32    64    1
    66    33    34   ar
    67    33    32   ar
    68    33    65    1
    69    34    35   ar
    70    34    66    1
    71    35    30   ar
    72    35    67    1
