@<TRIPOS>MOLECULE
60B
31 35 0 0 0
SMALL
NO_CHARGES

@<TRIPOS>ATOM
     1 C4         -53.3340     1.0580   -19.5370 C.ar     1 LIG 0.0000
     2 C5         -54.3070     2.0600   -19.6960 C.ar     1 LIG 0.0000
     3 C11        -51.4750    -1.6240   -21.1820 C.ar     1 LIG 0.0000
     4 C7         -54.6520     1.4550   -21.9500 C.ar     1 LIG 0.0000
     5 C8         -53.6680     0.4790   -21.8780 C.ar     1 LIG 0.0000
     6 C9         -53.0150     0.2490   -20.6610 C.ar     1 LIG 0.0000
     7 C12        -49.9810    -1.4350   -21.4550 C.ar     1 LIG 0.0000
     8 C13        -51.9120    -3.0530   -20.8770 C.ar     1 LIG 0.0000
     9 N3         -52.5440     0.6250   -18.5120 N.ar     1 LIG 0.0000
    10 C1         -50.8180    -1.0520   -17.9800 C.ar     1 LIG 0.0000
    11 C2         -51.8010    -0.3760   -18.9090 C.ar     1 LIG 0.0000
    12 N6         -54.9210     2.2060   -20.8680 N.ar     1 LIG 0.0000
    13 N10        -52.0460    -0.6410   -20.2460 N.ar     1 LIG 0.0000
    14 N14        -55.3420     1.7340   -23.1430 N.ar     1 LIG 0.0000
    15 C15        -55.4550     0.9650   -24.2940 C.ar     1 LIG 0.0000
    16 C16        -56.6500     1.0610   -25.0270 C.ar     1 LIG 0.0000
    17 C17        -56.7820     0.2950   -26.1820 C.ar     1 LIG 0.0000
    18 N18        -55.7790    -0.4930   -26.5650 N.ar     1 LIG 0.0000
    19 C19        -54.6320    -0.5480   -25.8790 C.ar     1 LIG 0.0000
    20 N20        -54.4740     0.1640   -24.7510 N.ar     1 LIG 0.0000
    21 C21        -53.5790    -1.4900   -26.3440 C.ar     1 LIG 0.0000
    22 C22        -53.3940    -1.9880   -27.6510 C.ar     1 LIG 0.0000
    23 N23        -52.4220    -2.8550   -27.6350 N.ar     1 LIG 0.0000
    24 N24        -51.9550    -2.9700   -26.3200 N.ar     1 LIG 0.0000
    25 C25        -52.6850    -2.1390   -25.5470 C.ar     1 LIG 0.0000
    26 S26        -50.7280    -3.9740   -25.7780 S.2      1 LIG 0.0000
    27 O27        -50.0300    -4.3390   -26.9680 O.2      1 LIG 0.0000
    28 O28        -50.1040    -3.2150   -24.7420 O.2      1 LIG 0.0000
    29 C29        -51.5470    -5.4380   -25.0640 C.ar     1 LIG 0.0000
    30 C30        -50.6920    -6.6970   -24.8930 C.ar     1 LIG 0.0000
    31 C31        -51.1270    -5.8960   -23.6670 C.ar     1 LIG 0.0000
@<TRIPOS>BOND
     1   22   23 2
     2   22   21 1
     3   23   24 1
     4   27   26 2
     5   18   17 2
     6   18   19 1
     7   21   19 1
     8   21   25 2
     9   24   26 1
    10   24   25 1
    11   17   16 1
    12   19   20 2
    13   26   29 1
    14   26   28 2
    15   29   30 1
    16   29   31 1
    17   16   15 2
    18   30   31 1
    19   20   15 1
    20   15   14 1
    21   14    4 1
    22    4    5 2
    23    4   12 1
    24    5    6 1
    25    7    3 1
    26    3    8 1
    27    3   13 1
    28   12    2 2
    29    6   13 1
    30    6    1 2
    31   13   11 1
    32    2    1 1
    33    1    9 1
    34   11    9 2
    35   11   10 1
