@<TRIPOS>MOLECULE
60D
39 44 0 0 0
SMALL
NO_CHARGES

@<TRIPOS>ATOM
     1 C14        -55.4040     1.0340   -24.4270 C.ar     1 LIG 0.0000
     2 C5         -51.4200    -0.3610   -19.2420 C.ar     1 LIG 0.0000
     3 C6         -52.2210     0.6080   -18.7020 C.ar     1 LIG 0.0000
     4 C7         -53.1070     1.0580   -19.7980 C.ar     1 LIG 0.0000
     5 C8         -52.7220     0.3230   -20.9520 C.ar     1 LIG 0.0000
     6 C9         -53.4010     0.5760   -22.1550 C.ar     1 LIG 0.0000
     7 C10        -54.4510     1.5030   -22.1580 C.ar     1 LIG 0.0000
     8 C12        -54.1310     2.0030   -19.9050 C.ar     1 LIG 0.0000
     9 C3         -51.7140    -2.8220   -21.4320 C.ar     1 LIG 0.0000
    10 C1         -49.5200    -1.5660   -21.3380 C.ar     1 LIG 0.0000
    11 C2         -51.0370    -1.4500   -21.5160 C.ar     1 LIG 0.0000
    12 N4         -51.6890    -0.5140   -20.5780 N.ar     1 LIG 0.0000
    13 N11        -54.7530     2.1950   -21.0590 N.ar     1 LIG 0.0000
    14 N13        -55.1990     1.8180   -23.3040 N.ar     1 LIG 0.0000
    15 C15        -56.6300     1.1430   -25.1010 C.ar     1 LIG 0.0000
    16 C16        -56.8150     0.3760   -26.2470 C.ar     1 LIG 0.0000
    17 N17        -55.8400    -0.4380   -26.6540 N.ar     1 LIG 0.0000
    18 C18        -54.6730    -0.5160   -26.0100 C.ar     1 LIG 0.0000
    19 N19        -54.4530     0.2190   -24.9160 N.ar     1 LIG 0.0000
    20 C20        -53.6350    -1.4670   -26.4730 C.ar     1 LIG 0.0000
    21 C21        -53.4880    -2.0310   -27.7580 C.ar     1 LIG 0.0000
    22 N22        -52.4710    -2.8490   -27.7270 N.ar     1 LIG 0.0000
    23 N23        -51.9290    -2.8520   -26.4320 N.ar     1 LIG 0.0000
    24 C24        -52.6670    -2.0110   -25.6830 C.ar     1 LIG 0.0000
    25 S25        -50.6590    -3.7890   -25.8720 S.2      1 LIG 0.0000
    26 O26        -49.8760    -4.0330   -27.0380 O.2      1 LIG 0.0000
    27 O27        -50.1330    -3.0770   -24.7500 O.2      1 LIG 0.0000
    28 C28        -51.4560    -5.3360   -25.3260 C.ar     1 LIG 0.0000
    29 C29        -50.5490    -6.5070   -24.9380 C.ar     1 LIG 0.0000
    30 C30        -51.3340    -5.7570   -23.8620 C.ar     1 LIG 0.0000
    31 C31        -52.2560     1.0830   -17.3040 C.ar     1 LIG 0.0000
    32 O32        -52.8540     2.1130   -17.0150 O.2      1 LIG 0.0000
    33 N33        -51.6070     0.3820   -16.3460 N.ar     1 LIG 0.0000
    34 C34        -51.6430     0.7840   -14.9400 C.ar     1 LIG 0.0000
    35 C35        -52.7490    -0.0720   -14.2860 C.ar     1 LIG 0.0000
    36 C36        -52.7930     0.1860   -12.7750 C.ar     1 LIG 0.0000
    37 O37        -51.4930    -0.1200   -12.2500 O.2      1 LIG 0.0000
    38 C38        -50.4070     0.6810   -12.7640 C.ar     1 LIG 0.0000
    39 C39        -50.2800     0.5120   -14.2890 C.ar     1 LIG 0.0000
@<TRIPOS>BOND
     1   21   22 2
     2   21   20 1
     3   22   23 1
     4   26   25 2
     5   17   16 2
     6   17   18 1
     7   20   18 1
     8   20   24 2
     9   23   25 1
    10   23   24 1
    11   16   15 1
    12   18   19 2
    13   25   28 1
    14   25   27 2
    15   28   29 1
    16   28   30 1
    17   15    1 2
    18   29   30 1
    19   19    1 1
    20    1   14 1
    21   14    7 1
    22    7    6 2
    23    7   13 1
    24    6    5 1
    25   11    9 1
    26   11   10 1
    27   11   12 1
    28   13    8 2
    29    5   12 1
    30    5    4 2
    31   12    2 1
    32    8    4 1
    33    4    3 1
    34    2    3 2
    35    3   31 1
    36   31   32 2
    37   31   33 1
    38   33   34 1
    39   34   39 1
    40   34   35 1
    41   39   38 1
    42   35   36 1
    43   36   37 1
    44   38   37 1
