@<TRIPOS>MOLECULE
630
30 33 0 0 0
SMALL
NO_CHARGES

@<TRIPOS>ATOM
     1 N1         -13.6810    11.5550   -27.8850 N.ar     1 LIG 0.0000
     2 N3         -13.4740    13.9450   -27.9630 N.ar     1 LIG 0.0000
     3 C4         -12.8400    15.1130   -28.3140 C.ar     1 LIG 0.0000
     4 C5         -11.6230    15.0340   -29.0390 C.ar     1 LIG 0.0000
     5 C6         -11.1860    13.7280   -29.3310 C.ar     1 LIG 0.0000
     6 C10        -10.6640    15.9170   -29.5860 C.ar     1 LIG 0.0000
     7 C13        -14.2770    16.1870   -26.8040 C.ar     1 LIG 0.0000
     8 C15        -14.0030    18.6760   -26.0820 C.ar     1 LIG 0.0000
     9 C20        -14.0170    18.0840   -21.6780 C.ar     1 LIG 0.0000
    10 C21        -14.0990    17.4500   -20.2950 C.ar     1 LIG 0.0000
    11 C24        -14.0640    21.0840   -26.2010 C.ar     1 LIG 0.0000
    12 C26        -15.4350    10.2340   -26.8420 C.ar     1 LIG 0.0000
    13 C2         -12.9710    12.7190   -28.2900 C.ar     1 LIG 0.0000
    14 N7         -11.8050    12.5510   -28.9910 N.ar     1 LIG 0.0000
    15 N8         -10.0100    13.8300   -30.0290 N.ar     1 LIG 0.0000
    16 C9          -9.6830    15.1550   -30.1900 C.ar     1 LIG 0.0000
    17 CL1        -10.7240    17.6150   -29.5020 CL       1 LIG 0.0000
    18 O12        -13.4080    16.3390   -27.9500 O.2      1 LIG 0.0000
    19 C14        -14.9400    17.4960   -26.3730 C.ar     1 LIG 0.0000
    20 C16        -13.6090    18.4330   -24.6150 C.ar     1 LIG 0.0000
    21 N17        -14.7880    17.7720   -24.0240 N.ar     1 LIG 0.0000
    22 C18        -15.7080    17.3170   -25.0660 C.ar     1 LIG 0.0000
    23 C19        -15.0700    17.5690   -22.6640 C.ar     1 LIG 0.0000
    24 O22        -16.1050    17.0170   -22.2730 O.2      1 LIG 0.0000
    25 O23        -14.8010    19.8690   -26.2200 O.2      1 LIG 0.0000
    26 C25        -14.8460    11.4290   -27.1760 C.ar     1 LIG 0.0000
    27 N27        -16.5610    10.5510   -26.1360 N.ar     1 LIG 0.0000
    28 N28        -16.7540    11.8660   -25.9850 N.ar     1 LIG 0.0000
    29 C29        -15.7100    12.3990   -26.6180 C.ar     1 LIG 0.0000
    30 C30        -17.5160     9.6330   -25.5660 C.ar     1 LIG 0.0000
@<TRIPOS>BOND
     1   16   15 1
     2   16    6 2
     3   15    5 1
     4    6   17 1
     5    6    4 1
     6    5    4 2
     7    5   14 1
     8    4    3 1
     9   14   13 2
    10    3    2 2
    11    3   18 1
    12   13    2 1
    13   13    1 1
    14   18    7 1
    15    1   26 1
    16   26   12 2
    17   26   29 1
    18   12   27 1
    19    7   19 1
    20   29   28 2
    21   19    8 1
    22   19   22 1
    23   25   11 1
    24   25    8 1
    25   27   28 1
    26   27   30 1
    27    8   20 1
    28   22   21 1
    29   20   21 1
    30   21   23 1
    31   23   24 2
    32   23    9 1
    33    9   10 1
