@<TRIPOS>MOLECULE
634
28 31 0 0 0
SMALL
NO_CHARGES

@<TRIPOS>ATOM
     1 C4          10.0960    -4.0180   -33.4800 C.ar     1 LIG 0.0000
     2 C5           9.8090    -2.6520   -33.6040 C.ar     1 LIG 0.0000
     3 C8           7.8790    -3.7760   -33.7380 C.ar     1 LIG 0.0000
     4 C13         15.5470    -6.1060   -33.2670 C.ar     1 LIG 0.0000
     5 C15         14.7310    -6.3610   -30.9380 C.ar     1 LIG 0.0000
     6 C20         15.6030    -6.9060   -27.3030 C.ar     1 LIG 0.0000
     7 C21         16.4400    -6.2450   -26.2260 C.ar     1 LIG 0.0000
     8 C24         15.1300    -2.2770   -33.0210 C.ar     1 LIG 0.0000
     9 C28         17.5680    -2.7080   -32.7070 C.ar     1 LIG 0.0000
    10 C1          12.0020    -2.0080   -33.4030 C.ar     1 LIG 0.0000
    11 N2          12.3730    -3.3140   -33.2740 N.ar     1 LIG 0.0000
    12 C3          11.4530    -4.3310   -33.3080 C.ar     1 LIG 0.0000
    13 N6          10.7000    -1.6130   -33.5760 N.ar     1 LIG 0.0000
    14 N7           8.4590    -2.5300   -33.7590 N.ar     1 LIG 0.0000
    15 C9           8.8660    -4.7200   -33.5670 C.ar     1 LIG 0.0000
    16 O10         11.8560    -5.6580   -33.1710 O.2      1 LIG 0.0000
    17 C11         13.1590    -5.8810   -32.7740 C.ar     1 LIG 0.0000
    18 C12         14.2250    -5.8710   -33.7200 C.ar     1 LIG 0.0000
    19 C14         15.8060    -6.3510   -31.8870 C.ar     1 LIG 0.0000
    20 C16         13.4090    -6.1240   -31.3960 C.ar     1 LIG 0.0000
    21 N17         14.8620    -6.6050   -29.5420 N.ar     1 LIG 0.0000
    22 C18         15.9910    -6.5360   -28.7330 C.ar     1 LIG 0.0000
    23 O19         17.1380    -6.2380   -29.0680 O.2      1 LIG 0.0000
    24 N22         13.0060    -1.0070   -33.3570 N.ar     1 LIG 0.0000
    25 C23         14.3620    -1.1400   -33.1910 C.ar     1 LIG 0.0000
    26 N25         16.4150    -1.8630   -32.9010 N.ar     1 LIG 0.0000
    27 N26         16.5570    -0.5300   -32.9780 N.ar     1 LIG 0.0000
    28 C27         15.3040    -0.0920   -33.1550 C.ar     1 LIG 0.0000
@<TRIPOS>BOND
     1   14    3 1
     2   14    2 1
     3    3   15 2
     4   18    4 2
     5   18   17 1
     6    2   13 2
     7    2    1 1
     8   13   10 1
     9   15    1 1
    10    1   12 2
    11   10   24 1
    12   10   11 2
    13   24   25 1
    14   12   11 1
    15   12   16 1
    16    4   19 1
    17   25   28 1
    18   25    8 2
    19   16   17 1
    20   28   27 2
    21    8   26 1
    22   27   26 1
    23   26    9 1
    24   17   20 2
    25   19    5 2
    26   20    5 1
    27    5   21 1
    28   21   22 1
    29   23   22 2
    30   22    6 1
    31    6    7 1
