@<TRIPOS>MOLECULE
63A
31 34 0 0 0
SMALL
NO_CHARGES

@<TRIPOS>ATOM
     1 N3         -14.5170    18.1100   -24.0450 N.ar     1 LIG 0.0000
     2 C4         -13.6970    19.2710   -24.4350 C.ar     1 LIG 0.0000
     3 C5         -13.8700    19.4200   -25.9610 C.ar     1 LIG 0.0000
     4 C6         -14.8150    20.5860   -26.3400 C.ar     1 LIG 0.0000
     5 C10        -14.7030    17.5670   -22.7610 C.ar     1 LIG 0.0000
     6 C20        -11.0860    14.2850   -29.5550 C.ar     1 LIG 0.0000
     7 C21        -11.4680    15.6220   -29.3120 C.ar     1 LIG 0.0000
     8 C22        -10.4870    16.4520   -29.9100 C.ar     1 LIG 0.0000
     9 C26        -14.8050    12.2380   -27.2490 C.ar     1 LIG 0.0000
    10 C1         -14.4240    18.0570   -26.4260 C.ar     1 LIG 0.0000
    11 C2         -15.1760    17.5240   -25.2010 C.ar     1 LIG 0.0000
    12 F7         -14.9570    20.6710   -27.6840 F        1 LIG 0.0000
    13 F8         -16.0580    20.4580   -25.8190 F        1 LIG 0.0000
    14 F9         -14.3130    21.7730   -25.9240 F        1 LIG 0.0000
    15 C11        -13.9560    18.2630   -21.6200 C.ar     1 LIG 0.0000
    16 C12        -14.0060    17.5290   -20.2820 C.ar     1 LIG 0.0000
    17 O13        -15.4270    16.5840   -22.5540 O.2      1 LIG 0.0000
    18 C14        -13.2710    17.1300   -26.8010 C.ar     1 LIG 0.0000
    19 O15        -13.1940    17.0100   -28.2400 O.2      1 LIG 0.0000
    20 C16        -12.6650    15.7720   -28.5740 C.ar     1 LIG 0.0000
    21 N17        -13.3460    14.6540   -28.1580 N.ar     1 LIG 0.0000
    22 C18        -12.8950    13.3940   -28.4420 C.ar     1 LIG 0.0000
    23 N19        -11.7460    13.1510   -29.1540 N.ar     1 LIG 0.0000
    24 C23         -9.5460    15.6190   -30.4960 C.ar     1 LIG 0.0000
    25 N24         -9.9240    14.3130   -30.2720 N.ar     1 LIG 0.0000
    26 N25        -13.6440    12.2800   -27.9760 N.ar     1 LIG 0.0000
    27 C27        -15.4320    11.0790   -26.8550 C.ar     1 LIG 0.0000
    28 N28        -16.5350    11.4700   -26.1550 N.ar     1 LIG 0.0000
    29 N29        -16.6810    12.8020   -26.0620 N.ar     1 LIG 0.0000
    30 C30        -15.6270    13.2700   -26.7290 C.ar     1 LIG 0.0000
    31 C31        -17.5150    10.6150   -25.5320 C.ar     1 LIG 0.0000
@<TRIPOS>BOND
     1   24   25 1
     2   24    8 2
     3   25    6 1
     4    8    7 1
     5    6    7 2
     6    6   23 1
     7    7   20 1
     8   23   22 2
     9   20   19 1
    10   20   21 2
    11   22   21 1
    12   22   26 1
    13   19   18 1
    14   26    9 1
    15   12    4 1
    16    9   27 2
    17    9   30 1
    18   27   28 1
    19   18   10 1
    20   30   29 2
    21   10    3 1
    22   10   11 1
    23    4    3 1
    24    4   14 1
    25    4   13 1
    26   28   29 1
    27   28   31 1
    28    3    2 1
    29   11    1 1
    30    2    1 1
    31    1    5 1
    32    5   17 2
    33    5   15 1
    34   15   16 1
