@<TRIPOS>MOLECULE
6GY
40 44 0 0 0
SMALL
NO_CHARGES

@<TRIPOS>ATOM
     1 C1           4.2280    15.5790     9.9070 C.ar     1 LIG 0.0000
     2 C2           4.6980    16.4870     8.9240 C.ar     1 LIG 0.0000
     3 C3          10.7030    16.7560     9.1300 C.ar     1 LIG 0.0000
     4 C4           2.6710    17.6450     9.0530 C.ar     1 LIG 0.0000
     5 C6           2.9340    15.7940    10.4150 C.ar     1 LIG 0.0000
     6 C9           3.5430    20.3080     7.8240 C.ar     1 LIG 0.0000
     7 C10          3.8270    21.4620     7.0570 C.ar     1 LIG 0.0000
     8 C11          2.7750    22.1320     6.3750 C.ar     1 LIG 0.0000
     9 C12          1.4440    21.6400     6.4700 C.ar     1 LIG 0.0000
    10 C13          1.1480    20.4710     7.2450 C.ar     1 LIG 0.0000
    11 O14         -0.1320    19.9060     7.4000 O.2      1 LIG 0.0000
    12 C15         -1.2670    20.7750     7.4290 C.ar     1 LIG 0.0000
    13 C18          2.6560    25.7350     5.3510 C.ar     1 LIG 0.0000
    14 C26          4.6360    28.2750     1.4380 C.ar     1 LIG 0.0000
    15 N3           3.8950    17.5060     8.5180 N.ar     1 LIG 0.0000
    16 N5           2.1520    16.8300     9.9890 N.ar     1 LIG 0.0000
    17 N7           1.8560    18.6730     8.6620 N.ar     1 LIG 0.0000
    18 C8           2.2090    19.8020     7.9270 C.ar     1 LIG 0.0000
    19 N16          3.0340    23.2630     5.6310 N.ar     1 LIG 0.0000
    20 C17          2.9780    24.5850     6.3280 C.ar     1 LIG 0.0000
    21 C19          3.5720    25.6520     4.1100 C.ar     1 LIG 0.0000
    22 C20          3.3560    24.3030     3.3740 C.ar     1 LIG 0.0000
    23 C21          3.7370    23.1270     4.3160 C.ar     1 LIG 0.0000
    24 N22          3.5800    26.8960     3.2730 N.ar     1 LIG 0.0000
    25 C23          2.2750    27.6030     3.0380 C.ar     1 LIG 0.0000
    26 C24          2.4960    29.0140     2.4450 C.ar     1 LIG 0.0000
    27 N25          3.3290    28.9480     1.2050 N.ar     1 LIG 0.0000
    28 C27          4.4630    26.8660     2.0580 C.ar     1 LIG 0.0000
    29 C28          3.4610    30.2550     0.5300 C.ar     1 LIG 0.0000
    30 N29          5.9680    16.3490     8.3710 N.ar     1 LIG 0.0000
    31 C30          6.6490    17.2870     7.6250 C.ar     1 LIG 0.0000
    32 C31          8.0030    17.5820     7.9840 C.ar     1 LIG 0.0000
    33 C32          8.7270    18.5440     7.2300 C.ar     1 LIG 0.0000
    34 C33          8.1240    19.2120     6.1320 C.ar     1 LIG 0.0000
    35 C34          6.7910    18.9270     5.7680 C.ar     1 LIG 0.0000
    36 C35          6.0550    17.9740     6.5070 C.ar     1 LIG 0.0000
    37 P1           8.8550    16.7400     9.3890 P.3      1 LIG 0.0000
    38 C37          8.6940    17.7100    10.9640 C.ar     1 LIG 0.0000
    39 O41          8.3920    15.3400     9.5360 O.2      1 LIG 0.0000
    40 CL           5.1760    14.2440    10.4920 CL       1 LIG 0.0000
@<TRIPOS>BOND
     1   29   27 1
     2   27   14 1
     3   27   26 1
     4   14   28 1
     5   28   24 1
     6   26   25 1
     7   25   24 1
     8   24   21 1
     9   22   21 1
    10   22   23 1
    11   21   13 1
    12   23   19 1
    13   13   20 1
    14   19   20 1
    15   19    8 1
    16   35   34 2
    17   35   36 1
    18   34   33 1
    19    8    9 2
    20    8    7 1
    21    9   10 1
    22   36   31 2
    23    7    6 2
    24   33   32 2
    25   10   11 1
    26   10   18 2
    27   11   12 1
    28   31   32 1
    29   31   30 1
    30    6   18 1
    31   18   17 1
    32   32   37 1
    33   30    2 1
    34   15    2 2
    35   15    4 1
    36   17    4 1
    37    2    1 1
    38    4   16 2
    39    3   37 1
    40   37   39 2
    41   37   38 1
    42    1    5 2
    43    1   40 1
    44   16    5 1
