6GY
  CCTOOLS-0919241041

 79 83  0  0  0  0  0  0  0  0999 V2000
    3.6340    2.0500    0.8590 C   0  0  0  0  0
    4.1480    0.8110    0.4670 C   0  0  0  0  0
    9.5670    0.2440   -2.2030 C   0  0  0  0  0
    2.0130   -0.0590    0.5040 C   0  0  0  0  0
    2.2720    2.1640    1.0610 C   0  0  0  0  0
   -0.7740    0.2850    0.1430 C   0  0  0  0  0
   -2.1440    0.4570    0.1950 C   0  0  0  0  0
   -2.9700   -0.6220    0.4810 C   0  0  0  0  0
   -2.4210   -1.8750    0.7150 C   0  0  0  0  0
   -1.0480   -2.0490    0.6630 C   0  0  0  0  0
   -0.5090   -3.2760    0.8910 O   0  0  0  0  0
   -1.4170   -4.3410    1.1790 C   0  0  0  0  0
   -6.2250    1.1390    0.4670 C   0  0  0  0  0
  -10.3530    1.8390   -0.0650 C   0  0  0  0  0
    3.3130   -0.2100    0.3010 N   0  0  0  0  0
    1.4970    1.1050    0.8710 N   0  0  0  0  0
    1.1700   -1.1410    0.3170 N   0  0  0  0  0
   -0.2210   -0.9660    0.3760 C   0  0  0  0  0
   -4.3570   -0.4450    0.5340 N   0  0  0  0  0
   -4.7210    0.9510    0.2580 C   0  0  0  0  0
   -6.9870    0.1980   -0.4710 C   0  0  0  0  0
   -6.5550   -1.2450   -0.1960 C   0  0  0  0  0
   -5.0410   -1.3630   -0.3850 C   0  0  0  0  0
   -8.4310    0.3330   -0.2350 N   0  0  0  0  0
   -9.1940   -0.5580   -1.1200 C   0  0  0  0  0
  -10.6840   -0.4470   -0.7890 C   0  0  0  0  0
  -11.1170    0.9490   -0.9500 N   0  0  0  0  0
   -8.8630    1.7280   -0.3970 C   0  0  0  0  0
  -12.5600    1.0830   -0.7140 C   0  0  0  0  0
    5.5090    0.6490    0.2520 N   0  0  0  0  0
    6.0300   -0.6230   -0.0000 C   0  0  0  0  0
    7.2750   -0.7580   -0.6020 C   0  0  0  0  0
    7.7870   -2.0160   -0.8500 C   0  0  0  0  0
    7.0620   -3.1410   -0.5010 C   0  0  0  0  0
    5.8230   -3.0100    0.0980 C   0  0  0  0  0
    5.3070   -1.7550    0.3540 C   0  0  0  0  0
    8.2260    0.7170   -1.0610 P   0  0  0  0  0
    8.9420    1.4690    0.4370 C   0  0  0  0  0
    7.3340    1.6930   -1.7250 O   0  0  0  0  0
    4.6840    3.4120    1.0960 CL  0  0  0  0  0
    9.1390   -0.2060   -3.0990 H   0  0  0  0  0
   10.1390    1.1300   -2.4790 H   0  0  0  0  0
   10.2240   -0.4750   -1.7130 H   0  0  0  0  0
    1.8430    3.1060    1.3690 H   0  0  0  0  0
   -0.1320    1.1240   -0.0840 H   0  0  0  0  0
   -2.5720    1.4320    0.0140 H   0  0  0  0  0
   -3.0640   -2.7140    0.9380 H   0  0  0  0  0
   -2.1000   -4.4730    0.3400 H   0  0  0  0  0
   -0.8570   -5.2630    1.3400 H   0  0  0  0  0
   -1.9870   -4.1000    2.0770 H   0  0  0  0  0
   -6.4810    0.9070    1.5010 H   0  0  0  0  0
   -6.4970    2.1710    0.2470 H   0  0  0  0  0
  -10.6820    2.8680   -0.2130 H   0  0  0  0  0
  -10.5170    1.5500    0.9720 H   0  0  0  0  0
    1.5410   -2.0210    0.1440 H   0  0  0  0  0
   -4.4640    1.1960   -0.7730 H   0  0  0  0  0
   -4.1750    1.6090    0.9340 H   0  0  0  0  0
   -6.7620    0.4540   -1.5060 H   0  0  0  0  0
   -6.8150   -1.5140    0.8280 H   0  0  0  0  0
   -7.0620   -1.9160   -0.8890 H   0  0  0  0  0
   -4.7820   -1.1080   -1.4130 H   0  0  0  0  0
   -4.7270   -2.3860   -0.1760 H   0  0  0  0  0
   -9.0300   -0.2680   -2.1580 H   0  0  0  0  0
   -8.8650   -1.5870   -0.9730 H   0  0  0  0  0
  -11.2550   -1.0850   -1.4630 H   0  0  0  0  0
  -10.8530   -0.7630    0.2410 H   0  0  0  0  0
   -8.6940    2.0440   -1.4260 H   0  0  0  0  0
   -8.2920    2.3660    0.2780 H   0  0  0  0  0
  -12.8650    2.1120   -0.9060 H   0  0  0  0  0
  -13.1020    0.4130   -1.3820 H   0  0  0  0  0
  -12.7850    0.8250    0.3200 H   0  0  0  0  0
    6.0980    1.4190    0.2780 H   0  0  0  0  0
    8.7550   -2.1220   -1.3180 H   0  0  0  0  0
    7.4650   -4.1240   -0.6970 H   0  0  0  0  0
    5.2590   -3.8900    0.3690 H   0  0  0  0  0
    4.3390   -1.6530    0.8220 H   0  0  0  0  0
    9.5130    2.3560    0.1620 H   0  0  0  0  0
    8.1400    1.7520    1.1200 H   0  0  0  0  0
    9.5990    0.7510    0.9270 H   0  0  0  0  0
  1  5  2  0  0  0
  1 40  1  0  0  0
  2  1  1  0  0  0
  3 37  1  0  0  0
  3 41  1  0  0  0
  3 42  1  0  0  0
  3 43  1  0  0  0
  4 16  2  0  0  0
  5 44  1  0  0  0
  6 18  1  0  0  0
  6 45  1  0  0  0
  7  6  2  0  0  0
  7 46  1  0  0  0
  8  9  2  0  0  0
  8  7  1  0  0  0
  9 10  1  0  0  0
  9 47  1  0  0  0
 10 11  1  0  0  0
 10 18  2  0  0  0
 11 12  1  0  0  0
 12 48  1  0  0  0
 12 49  1  0  0  0
 12 50  1  0  0  0
 13 20  1  0  0  0
 13 51  1  0  0  0
 13 52  1  0  0  0
 14 28  1  0  0  0
 14 53  1  0  0  0
 14 54  1  0  0  0
 15  2  2  0  0  0
 15  4  1  0  0  0
 16  5  1  0  0  0
 17  4  1  0  0  0
 17 55  1  0  0  0
 18 17  1  0  0  0
 19 20  1  0  0  0
 19  8  1  0  0  0
 20 56  1  0  0  0
 20 57  1  0  0  0
 21 13  1  0  0  0
 21 58  1  0  0  0
 22 21  1  0  0  0
 22 23  1  0  0  0
 22 59  1  0  0  0
 22 60  1  0  0  0
 23 19  1  0  0  0
 23 61  1  0  0  0
 23 62  1  0  0  0
 24 21  1  0  0  0
 25 24  1  0  0  0
 25 63  1  0  0  0
 25 64  1  0  0  0
 26 25  1  0  0  0
 26 65  1  0  0  0
 26 66  1  0  0  0
 27 14  1  0  0  0
 27 26  1  0  0  0
 28 24  1  0  0  0
 28 67  1  0  0  0
 28 68  1  0  0  0
 29 27  1  0  0  0
 29 69  1  0  0  0
 29 70  1  0  0  0
 29 71  1  0  0  0
 30  2  1  0  0  0
 30 72  1  0  0  0
 31 32  1  0  0  0
 31 30  1  0  0  0
 32 37  1  0  0  0
 33 32  2  0  0  0
 33 73  1  0  0  0
 34 33  1  0  0  0
 34 74  1  0  0  0
 35 34  2  0  0  0
 35 36  1  0  0  0
 35 75  1  0  0  0
 36 31  2  0  0  0
 36 76  1  0  0  0
 37 39  2  0  0  0
 37 38  1  0  0  0
 38 77  1  0  0  0
 38 78  1  0  0  0
 38 79  1  0  0  0
M  END
$$$$
