6GY
     RDKit          3D

 40 44  0  0  0  0  0  0  0  0999 V2000
    3.6340    2.0500    0.8590 C   0  0  0  0  0  0  0  0  0  0  0  0
    4.1480    0.8110    0.4670 C   0  0  0  0  0  0  0  0  0  0  0  0
    9.5670    0.2440   -2.2030 C   0  0  0  0  0  0  0  0  0  0  0  0
    2.0130   -0.0590    0.5040 C   0  0  0  0  0  0  0  0  0  0  0  0
    2.2720    2.1640    1.0610 C   0  0  0  0  0  0  0  0  0  0  0  0
   -0.7740    0.2850    0.1430 C   0  0  0  0  0  0  0  0  0  0  0  0
   -2.1440    0.4570    0.1950 C   0  0  0  0  0  0  0  0  0  0  0  0
   -2.9700   -0.6220    0.4810 C   0  0  0  0  0  0  0  0  0  0  0  0
   -2.4210   -1.8750    0.7150 C   0  0  0  0  0  0  0  0  0  0  0  0
   -1.0480   -2.0490    0.6630 C   0  0  0  0  0  0  0  0  0  0  0  0
   -0.5090   -3.2760    0.8910 O   0  0  0  0  0  0  0  0  0  0  0  0
   -1.4170   -4.3410    1.1790 C   0  0  0  0  0  0  0  0  0  0  0  0
   -6.2250    1.1390    0.4670 C   0  0  0  0  0  0  0  0  0  0  0  0
  -10.3530    1.8390   -0.0650 C   0  0  0  0  0  0  0  0  0  0  0  0
    3.3130   -0.2100    0.3010 N   0  0  0  0  0  0  0  0  0  0  0  0
    1.4970    1.1050    0.8710 N   0  0  0  0  0  0  0  0  0  0  0  0
    1.1700   -1.1410    0.3170 N   0  0  0  0  0  0  0  0  0  0  0  0
   -0.2210   -0.9660    0.3760 C   0  0  0  0  0  0  0  0  0  0  0  0
   -4.3570   -0.4450    0.5340 N   0  0  0  0  0  0  0  0  0  0  0  0
   -4.7210    0.9510    0.2580 C   0  0  0  0  0  0  0  0  0  0  0  0
   -6.9870    0.1980   -0.4710 C   0  0  0  0  0  0  0  0  0  0  0  0
   -6.5550   -1.2450   -0.1960 C   0  0  0  0  0  0  0  0  0  0  0  0
   -5.0410   -1.3630   -0.3850 C   0  0  0  0  0  0  0  0  0  0  0  0
   -8.4310    0.3330   -0.2350 N   0  0  0  0  0  0  0  0  0  0  0  0
   -9.1940   -0.5580   -1.1200 C   0  0  0  0  0  0  0  0  0  0  0  0
  -10.6840   -0.4470   -0.7890 C   0  0  0  0  0  0  0  0  0  0  0  0
  -11.1170    0.9490   -0.9500 N   0  0  0  0  0  0  0  0  0  0  0  0
   -8.8630    1.7280   -0.3970 C   0  0  0  0  0  0  0  0  0  0  0  0
  -12.5600    1.0830   -0.7140 C   0  0  0  0  0  0  0  0  0  0  0  0
    5.5090    0.6490    0.2520 N   0  0  0  0  0  0  0  0  0  0  0  0
    6.0300   -0.6230   -0.0000 C   0  0  0  0  0  0  0  0  0  0  0  0
    7.2750   -0.7580   -0.6020 C   0  0  0  0  0  0  0  0  0  0  0  0
    7.7870   -2.0160   -0.8500 C   0  0  0  0  0  0  0  0  0  0  0  0
    7.0620   -3.1410   -0.5010 C   0  0  0  0  0  0  0  0  0  0  0  0
    5.8230   -3.0100    0.0980 C   0  0  0  0  0  0  0  0  0  0  0  0
    5.3070   -1.7550    0.3540 C   0  0  0  0  0  0  0  0  0  0  0  0
    8.2260    0.7170   -1.0610 P   0  0  0  0  0  0  0  0  0  0  0  0
    8.9420    1.4690    0.4370 C   0  0  0  0  0  0  0  0  0  0  0  0
    7.3340    1.6930   -1.7250 O   0  0  0  0  0  0  0  0  0  0  0  0
    4.6840    3.4120    1.0960 Cl  0  0  0  0  0  0  0  0  0  0  0  0
  1  5  1  0
  1 40  1  0
  2  1  2  0
  3 37  1  0
  4 16  1  0
  6 18  1  0
  7  6  2  0
  8  9  2  0
  8  7  1  0
  9 10  1  0
 10 11  1  0
 10 18  2  0
 11 12  1  0
 13 20  1  0
 14 28  1  0
 15  2  1  0
 15  4  2  0
 16  5  2  0
 17  4  1  0
 18 17  1  0
 19 20  1  0
 19  8  1  0
 21 13  1  0
 22 21  1  0
 22 23  1  0
 23 19  1  0
 24 21  1  0
 25 24  1  0
 26 25  1  0
 27 14  1  0
 27 26  1  0
 28 24  1  0
 29 27  1  0
 30  2  1  0
 31 32  1  0
 31 30  1  0
 32 37  1  0
 33 32  2  0
 34 33  1  0
 35 34  2  0
 35 36  1  0
 36 31  2  0
 37 39  2  0
 37 38  1  0
M  END
$$$$
