@<TRIPOS>MOLECULE
6HJ
30 34 0 0 0
SMALL
NO_CHARGES

@<TRIPOS>ATOM
     1 C4           0.3610    52.4060   -21.8680 C.ar     1 LIG 0.0000
     2 C5           0.8130    53.0520   -22.9830 C.ar     1 LIG 0.0000
     3 C6           1.7890    53.9950   -22.7610 C.ar     1 LIG 0.0000
     4 N1           2.2750    54.2680   -21.5300 N.ar     1 LIG 0.0000
     5 N3           0.8130    52.6280   -20.6170 N.ar     1 LIG 0.0000
     6 CBD         -6.3730    51.3340   -19.6610 C.ar     1 LIG 0.0000
     7 CBB         -5.4800    51.0000   -20.8480 C.ar     1 LIG 0.0000
     8 CBA         -4.6360    49.7990   -20.3740 C.ar     1 LIG 0.0000
     9 OBC         -5.1250    49.0330   -19.5470 O.2      1 LIG 0.0000
    10 NAW         -3.4220    49.5560   -20.9180 N.ar     1 LIG 0.0000
    11 CAX         -2.7200    50.3480   -21.9340 C.ar     1 LIG 0.0000
    12 CAV         -2.7330    48.3530   -20.4860 C.ar     1 LIG 0.0000
    13 CAU         -1.4850    48.7870   -19.8190 C.ar     1 LIG 0.0000
    14 CAT         -0.5960    49.4320   -20.8710 C.ar     1 LIG 0.0000
    15 CAS         -1.3220    50.6760   -21.3270 C.ar     1 LIG 0.0000
    16 NAG         -0.5500    51.5280   -22.2330 N.ar     1 LIG 0.0000
    17 NAH         -0.7240    51.6060   -23.5950 N.ar     1 LIG 0.0000
    18 C2           1.7790    53.5660   -20.4270 C.ar     1 LIG 0.0000
    19 NAY          2.2770    54.7330   -23.7600 N.ar     1 LIG 0.0000
    20 CAI          0.1350    52.4920   -24.0610 C.ar     1 LIG 0.0000
    21 CAJ          0.1490    52.7000   -25.4140 C.ar     1 LIG 0.0000
    22 CAK          1.1960    52.5550   -26.2550 C.ar     1 LIG 0.0000
    23 CAO          2.4890    52.2310   -26.0570 C.ar     1 LIG 0.0000
    24 CAP          3.3990    52.2030   -27.1590 C.ar     1 LIG 0.0000
    25 CAQ          2.9250    52.5120   -28.4650 C.ar     1 LIG 0.0000
    26 CAR          1.5670    52.8280   -28.6070 C.ar     1 LIG 0.0000
    27 CAL          0.7580    52.8330   -27.5020 C.ar     1 LIG 0.0000
    28 NAM         -0.5550    53.0780   -27.4030 N.ar     1 LIG 0.0000
    29 CAZ         -1.4230    53.4410   -28.5070 C.ar     1 LIG 0.0000
    30 CAN         -0.9360    52.9770   -26.1410 C.ar     1 LIG 0.0000
@<TRIPOS>BOND
     1   26   25 2
     2   26   27 1
     3   29   28 1
     4   25   24 1
     5   27   28 1
     6   27   22 2
     7   28   30 1
     8   24   23 2
     9   22   23 1
    10   22   21 1
    11   30   21 2
    12   21   20 1
    13   20   17 2
    14   20    2 1
    15   19    3 1
    16   17   16 1
    17    2    3 2
    18    2    1 1
    19    3    4 1
    20   16    1 1
    21   16   15 1
    22   11   15 1
    23   11   10 1
    24    1    5 2
    25    4   18 2
    26   15   14 1
    27   10   12 1
    28   10    8 1
    29   14   13 1
    30    7    8 1
    31    7    6 2
    32    5   18 1
    33   12   13 1
    34    8    9 2
