@<TRIPOS>MOLECULE
6HL
30 34 0 0 0
SMALL
NO_CHARGES

@<TRIPOS>ATOM
     1 C4           0.3200    51.3760   -21.1830 C.ar     1 LIG 0.0000
     2 C5           0.6700    52.0520   -22.2970 C.ar     1 LIG 0.0000
     3 C6           1.6200    53.0430   -22.1750 C.ar     1 LIG 0.0000
     4 N1           2.1870    53.3420   -20.9860 N.ar     1 LIG 0.0000
     5 N3           0.8540    51.6460   -19.9690 N.ar     1 LIG 0.0000
     6 CBC         -6.0340    50.1080   -18.1340 C.ar     1 LIG 0.0000
     7 CBB         -5.2880    50.1840   -19.4090 C.ar     1 LIG 0.0000
     8 CAZ         -4.7060    48.7910   -19.4990 C.ar     1 LIG 0.0000
     9 OBA         -5.2930    47.8770   -18.9260 O.2      1 LIG 0.0000
    10 NAW         -3.5740    48.5880   -20.1660 N.ar     1 LIG 0.0000
    11 CAX         -2.8130    49.5860   -20.9590 C.ar     1 LIG 0.0000
    12 CAV         -3.0390    47.2530   -20.1740 C.ar     1 LIG 0.0000
    13 CAU         -1.6630    47.3460   -19.5840 C.ar     1 LIG 0.0000
    14 CAT         -0.7710    48.0540   -20.5840 C.ar     1 LIG 0.0000
    15 CAY         -1.2880    49.5220   -20.6260 C.ar     1 LIG 0.0000
    16 NAM         -0.5790    50.4610   -21.5360 N.ar     1 LIG 0.0000
    17 NAN         -0.8150    50.5230   -22.7140 N.ar     1 LIG 0.0000
    18 C2           1.8230    52.6580   -19.8390 C.ar     1 LIG 0.0000
    19 NBD          2.0240    53.7870   -23.2310 N.ar     1 LIG 0.0000
    20 CAO         -0.0850    51.4670   -23.2800 C.ar     1 LIG 0.0000
    21 CAC         -0.1650    51.7280   -24.6200 C.ar     1 LIG 0.0000
    22 CAD          0.9480    51.6310   -25.4840 C.ar     1 LIG 0.0000
    23 CAG          2.1970    51.2270   -25.0260 C.ar     1 LIG 0.0000
    24 CAH          3.3270    51.1320   -25.8500 C.ar     1 LIG 0.0000
    25 CAI          3.2220    51.4170   -27.2010 C.ar     1 LIG 0.0000
    26 CAJ          1.9720    51.8230   -27.6930 C.ar     1 LIG 0.0000
    27 CAE          0.8550    51.9290   -26.8500 C.ar     1 LIG 0.0000
    28 CAF         -0.3610    52.3140   -27.3920 C.ar     1 LIG 0.0000
    29 CAA         -1.4820    52.4070   -26.5710 C.ar     1 LIG 0.0000
    30 CAB         -1.3870    52.1130   -25.2070 C.ar     1 LIG 0.0000
@<TRIPOS>BOND
     1   26   25 2
     2   26   27 1
     3   28   27 2
     4   28   29 1
     5   25   24 1
     6   27   22 1
     7   29   30 2
     8   24   23 2
     9   22   23 1
    10   22   21 2
    11   30   21 1
    12   21   20 1
    13   20   17 2
    14   20    2 1
    15   19    3 1
    16   17   16 1
    17    2    3 2
    18    2    1 1
    19    3    4 1
    20   16    1 1
    21   16   15 1
    22    1    5 2
    23    4   18 2
    24   11   15 1
    25   11   10 1
    26   15   14 1
    27   14   13 1
    28   12   10 1
    29   12   13 1
    30   10    8 1
    31    5   18 1
    32    8    7 1
    33    8    9 2
    34    7    6 2
