@<TRIPOS>MOLECULE
9JO
 85 90 0 0 0
SMALL
GASTEIGER

@<TRIPOS>ATOM
      1 C          -0.7850    0.4820   -0.2570 C.ar    1  UNL1        0.0000
      2 C          -0.2350    1.7470   -0.4760 C.ar    1  UNL1        0.0000
      3 C           1.1270    1.8850   -0.5830 C.ar    1  UNL1        0.0000
      4 N           1.8870    0.8010   -0.4740 N.ar    1  UNL1        0.0000
      5 N           0.0340   -0.5570   -0.1560 N.ar    1  UNL1        0.0000
      6 C           1.3450   -0.3890   -0.2650 C.ar    1  UNL1        0.0000
      7 C          -8.6080   -6.0030   -0.3120 C.3     1  UNL1        0.0000
      8 C           6.6390   -3.1370   -1.3950 C.3     1  UNL1        0.0000
      9 C          11.6010    0.6380    0.5880 C.3     1  UNL1        0.0000
     10 C          -5.4200    5.7030   -0.7250 C.ar    1  UNL1        0.0000
     11 C          -5.0300    5.0220   -1.8640 C.ar    1  UNL1        0.0000
     12 C          -4.8810    5.3680    0.5030 C.ar    1  UNL1        0.0000
     13 C          -4.1000    4.0040   -1.7780 C.ar    1  UNL1        0.0000
     14 C           4.1260   -0.2160    0.4690 C.ar    1  UNL1        0.0000
     15 C           5.4970   -0.0520    0.4800 C.ar    1  UNL1        0.0000
     16 C           4.3810   -2.2740   -0.7500 C.ar    1  UNL1        0.0000
     17 C          -7.2690   -5.8640    0.4140 C.3     1  UNL1        0.0000
     18 C          -4.2110   -2.7770   -0.8280 C.3     1  UNL1        0.0000
     19 C          -4.0430   -2.4200    1.6390 C.3     1  UNL1        0.0000
     20 C          -3.6430   -1.3780   -1.0700 C.3     1  UNL1        0.0000
     21 C          -3.4740   -1.0200    1.3970 C.3     1  UNL1        0.0000
     22 C           9.7590   -0.8030    1.2160 C.3     1  UNL1        0.0000
     23 C           9.6140    0.5400   -0.7920 C.3     1  UNL1        0.0000
     24 C           8.2330   -0.9090    1.2560 C.3     1  UNL1        0.0000
     25 C           8.0870    0.4340   -0.7530 C.3     1  UNL1        0.0000
     26 C          -1.1750    2.9230   -0.5890 C.3     1  UNL1        0.0000
     27 C          -6.7090   -4.4850    0.1770 C.2     1  UNL1        0.0000
     28 C          -3.0090    1.3650   -0.2450 C.2     1  UNL1        0.0000
     29 C           5.7520   -2.1100   -0.7390 C.ar    1  UNL1        0.0000
     30 C          -3.9500    4.3510    0.5970 C.ar    1  UNL1        0.0000
     31 C           3.5640   -1.3270   -0.1460 C.ar    1  UNL1        0.0000
     32 C           6.3140   -0.9990   -0.1240 C.ar    1  UNL1        0.0000
     33 C          -3.5560    3.6650   -0.5460 C.ar    1  UNL1        0.0000
     34 C          -4.9840   -2.7930    0.4920 C.3     1  UNL1        0.0000
     35 C          -2.7010   -1.0050    0.0770 C.3     1  UNL1        0.0000
     36 N           2.1730   -1.4930   -0.1560 N.pl3   1  UNL1        0.0000
     37 N          -5.5280   -4.1340    0.7230 N.am    1  UNL1        0.0000
     38 N          10.1430    0.4630    0.5770 N.3     1  UNL1        0.0000
     39 N           7.7040   -0.8320   -0.1130 N.pl3   1  UNL1        0.0000
     40 N          -2.6140    2.6340   -0.4550 N.am    1  UNL1        0.0000
     41 N          -2.1570    0.3360   -0.1540 N.am    1  UNL1        0.0000
     42 O          -7.3210   -3.6910   -0.5070 O.2     1  UNL1        0.0000
     43 O          -4.2000    1.1400   -0.1420 O.2     1  UNL1        0.0000
     44 *          -3.2730    3.9310    2.1390 Du      1  UNL1        0.0000
     45 H           1.5710    2.8550   -0.7540 H       1  UNL1        0.0000
     46 H          -9.3070   -5.2560    0.0680 H       1  UNL1        0.0000
     47 H          -8.4600   -5.8500   -1.3810 H       1  UNL1        0.0000
     48 H          -9.0140   -7.0000   -0.1400 H       1  UNL1        0.0000
     49 H           6.8750   -2.8180   -2.4100 H       1  UNL1        0.0000
     50 H           7.5610   -3.2390   -0.8230 H       1  UNL1        0.0000
     51 H           6.1220   -4.0960   -1.4260 H       1  UNL1        0.0000
     52 H          12.0700   -0.1840    0.0460 H       1  UNL1        0.0000
     53 H          11.8580    1.5830    0.1090 H       1  UNL1        0.0000
     54 H          11.9590    0.6440    1.6180 H       1  UNL1        0.0000
     55 H          -6.1440    6.5010   -0.7960 H       1  UNL1        0.0000
     56 H          -5.4530    5.2860   -2.8220 H       1  UNL1        0.0000
     57 H          -5.1880    5.9020    1.3910 H       1  UNL1        0.0000
     58 H          -3.7960    3.4730   -2.6670 H       1  UNL1        0.0000
     59 H           3.4900    0.5180    0.9420 H       1  UNL1        0.0000
     60 H           5.9340    0.8120    0.9580 H       1  UNL1        0.0000
     61 H           3.9450   -3.1380   -1.2280 H       1  UNL1        0.0000
     62 H          -7.4180   -6.0160    1.4830 H       1  UNL1        0.0000
     63 H          -6.5710   -6.6100    0.0350 H       1  UNL1        0.0000
     64 H          -4.8820   -3.0430   -1.6450 H       1  UNL1        0.0000
     65 H          -3.3950   -3.4980   -0.7800 H       1  UNL1        0.0000
     66 H          -3.2260   -3.1410    1.6870 H       1  UNL1        0.0000
     67 H          -4.5930   -2.4320    2.5790 H       1  UNL1        0.0000
     68 H          -3.0920   -1.3660   -2.0100 H       1  UNL1        0.0000
     69 H          -4.4590   -0.6570   -1.1180 H       1  UNL1        0.0000
     70 H          -4.2910   -0.3000    1.3490 H       1  UNL1        0.0000
     71 H          -2.8030   -0.7550    2.2140 H       1  UNL1        0.0000
     72 H          10.1520   -0.8310    2.2330 H       1  UNL1        0.0000
     73 H          10.1680   -1.6370    0.6460 H       1  UNL1        0.0000
     74 H          10.0200   -0.2780   -1.3860 H       1  UNL1        0.0000
     75 H           9.9010    1.4920   -1.2400 H       1  UNL1        0.0000
     76 H           7.9460   -1.8610    1.7030 H       1  UNL1        0.0000
     77 H           7.8260   -0.0900    1.8490 H       1  UNL1        0.0000
     78 H           7.6790    1.2680   -0.1820 H       1  UNL1        0.0000
     79 H           7.6950    0.4620   -1.7690 H       1  UNL1        0.0000
     80 H          -0.9030    3.6460    0.1800 H       1  UNL1        0.0000
     81 H          -1.0140    3.3910   -1.5600 H       1  UNL1        0.0000
     82 H          -5.8010   -2.0730    0.4440 H       1  UNL1        0.0000
     83 H          -1.8850   -1.7250    0.1260 H       1  UNL1        0.0000
     84 H           1.7910   -2.3820   -0.0880 H       1  UNL1        0.0000
     85 H          -5.0390   -4.7680    1.2690 H       1  UNL1        0.0000
@<TRIPOS>BOND
     1     1     5   ar
     2     2     3   ar
     3     2     1   ar
     4     3     4   ar
     5     3    45    1
     6     4     6   ar
     7     5     6   ar
     8     6    36    1
     9     7    17    1
    10     7    46    1
    11     7    47    1
    12     7    48    1
    13     8    49    1
    14     8    50    1
    15     8    51    1
    16     9    52    1
    17     9    53    1
    18     9    54    1
    19    10    12   ar
    20    10    11   ar
    21    10    55    1
    22    11    13   ar
    23    11    56    1
    24    12    30   ar
    25    12    57    1
    26    13    33   ar
    27    13    58    1
    28    14    31   ar
    29    14    15   ar
    30    14    59    1
    31    15    32   ar
    32    15    60    1
    33    16    29   ar
    34    16    61    1
    35    17    27    1
    36    17    62    1
    37    17    63    1
    38    18    64    1
    39    18    65    1
    40    19    66    1
    41    19    67    1
    42    20    18    1
    43    20    68    1
    44    20    69    1
    45    21    35    1
    46    21    19    1
    47    21    70    1
    48    21    71    1
    49    22    38    1
    50    22    72    1
    51    22    73    1
    52    23    38    1
    53    23    74    1
    54    23    75    1
    55    24    39    1
    56    24    22    1
    57    24    76    1
    58    24    77    1
    59    25    23    1
    60    25    78    1
    61    25    79    1
    62    26     2    1
    63    26    80    1
    64    26    81    1
    65    27    42    2
    66    27    37   am
    67    28    41   am
    68    29     8    1
    69    30    44    1
    70    30    33   ar
    71    31    16   ar
    72    32    29   ar
    73    32    39    1
    74    33    40    1
    75    34    19    1
    76    34    37    1
    77    34    18    1
    78    34    82    1
    79    35    20    1
    80    35    83    1
    81    36    31    1
    82    36    84    1
    83    37    85    1
    84    38     9    1
    85    39    25    1
    86    40    26    1
    87    40    28   am
    88    41     1    1
    89    41    35    1
    90    43    28    2
