@<TRIPOS>MOLECULE
O57
 39 42 0 0 0
SMALL
GASTEIGER

@<TRIPOS>ATOM
      1 C           4.4340   -1.8350    1.4390 C.ar    1  UNL1       -0.0617
      2 C           3.5900   -2.7450    0.8310 C.ar    1  UNL1       -0.0615
      3 C           4.3940   -0.5020    1.0730 C.ar    1  UNL1       -0.0615
      4 C           0.6190    4.0230    0.0470 C.ar    1  UNL1       -0.0599
      5 C           1.1560    3.5780   -1.1460 C.ar    1  UNL1       -0.0599
      6 C           2.7090   -2.3230   -0.1470 C.ar    1  UNL1       -0.0571
      7 C           3.5130   -0.0810    0.0950 C.ar    1  UNL1       -0.0571
      8 C          -4.2290   -0.2020    1.0940 C.ar    1  UNL1       -0.0247
      9 C           0.0070    3.1280    0.9050 C.ar    1  UNL1       -0.0387
     10 C           1.0890    2.2390   -1.4820 C.ar    1  UNL1       -0.0384
     11 C          -3.1000    0.4280    1.5800 C.ar    1  UNL1       -0.0371
     12 C          -2.9320   -1.2340   -0.6300 C.ar    1  UNL1       -0.0125
     13 C           1.7130   -0.5320   -1.5850 C.3     1  UNL1        0.0452
     14 C          -4.1460   -1.0210   -0.0090 C.ar    1  UNL1        0.1242
     15 C           2.6730   -0.9920   -0.5180 C.ar    1  UNL1       -0.0297
     16 C          -0.4820   -0.8970   -0.7670 C.2     1  UNL1        0.2531
     17 C          -1.8750    0.2370    0.9570 C.ar    1  UNL1        0.0438
     18 C          -0.0690    1.7840    0.5710 C.ar    1  UNL1        0.0531
     19 C          -1.7780   -0.6160   -0.1390 C.ar    1  UNL1        0.0610
     20 C           0.4820    1.3300   -0.6230 C.ar    1  UNL1        0.0580
     21 F          -5.2590   -1.6200   -0.4860 F       1  UNL1       -0.2055
     22 N          -0.7480    0.9050    1.4240 N.pl3   1  UNL1       -0.3124
     23 N           0.4920   -0.0230   -0.9560 N.am    1  UNL1       -0.2613
     24 O          -0.2870   -2.0360   -1.1470 O.2     1  UNL1       -0.2696
     25 H           5.1230   -2.1640    2.2040 H       1  UNL1        0.0618
     26 H           3.6180   -3.7850    1.1210 H       1  UNL1        0.0618
     27 H           5.0510    0.2090    1.5510 H       1  UNL1        0.0618
     28 H           0.6830    5.0690    0.3110 H       1  UNL1        0.0618
     29 H           1.6280    4.2790   -1.8190 H       1  UNL1        0.0618
     30 H           2.0490   -3.0340   -0.6220 H       1  UNL1        0.0621
     31 H           3.4810    0.9600   -0.1900 H       1  UNL1        0.0621
     32 H          -5.1810   -0.0510    1.5820 H       1  UNL1        0.0647
     33 H          -0.4120    3.4770    1.8370 H       1  UNL1        0.0637
     34 H           1.5100    1.8980   -2.4170 H       1  UNL1        0.0637
     35 H          -3.1710    1.0710    2.4450 H       1  UNL1        0.0637
     36 H          -2.8740   -1.8780   -1.4950 H       1  UNL1        0.0654
     37 H           2.1760    0.2590   -2.1740 H       1  UNL1        0.0518
     38 H           1.4650   -1.3710   -2.2350 H       1  UNL1        0.0518
     39 H          -0.4350    0.7630    2.3320 H       1  UNL1        0.1522
@<TRIPOS>BOND
     1     1    25    1
     2     2     1   ar
     3     2    26    1
     4     3     1   ar
     5     3    27    1
     6     4     5   ar
     7     4    28    1
     8     5    29    1
     9     6     2   ar
    10     6    30    1
    11     7     3   ar
    12     7    31    1
    13     8    14   ar
    14     8    11   ar
    15     8    32    1
    16     9     4   ar
    17     9    33    1
    18    10     5   ar
    19    10    34    1
    20    11    17   ar
    21    11    35    1
    22    12    19   ar
    23    12    36    1
    24    13    15    1
    25    13    37    1
    26    13    38    1
    27    14    12   ar
    28    15     6   ar
    29    15     7   ar
    30    16    23   am
    31    17    19   ar
    32    17    22    1
    33    18     9   ar
    34    18    20   ar
    35    19    16    1
    36    20    10   ar
    37    21    14    1
    38    22    18    1
    39    22    39    1
    40    23    13    1
    41    23    20    1
    42    24    16    2
