@<TRIPOS>MOLECULE
NQ1
 39 42 0 0 0
SMALL
GASTEIGER

@<TRIPOS>ATOM
      1 C           2.0650   -1.1260    0.3600 C.ar    1  UNL1        0.0583
      2 C           3.1380   -1.7170    1.0360 C.ar    1  UNL1       -0.0478
      3 C           4.3970   -1.7010    0.4770 C.ar    1  UNL1       -0.0609
      4 C           4.6100   -1.1050   -0.7550 C.ar    1  UNL1       -0.0600
      5 C           3.5650   -0.5030   -1.4270 C.ar    1  UNL1       -0.0398
      6 C           0.7180   -1.1810    0.9380 C.2     1  UNL1        0.2530
      7 C          -0.5680    2.1570    1.0110 C.ar    1  UNL1       -0.0032
      8 C          -0.4860    3.4200    0.4510 C.ar    1  UNL1        0.1253
      9 C           0.1430    3.6000   -0.7690 C.ar    1  UNL1       -0.0246
     10 C           0.7010    2.5170   -1.4220 C.ar    1  UNL1       -0.0360
     11 C           0.6330    1.2510   -0.8590 C.ar    1  UNL1        0.0532
     12 C          -0.0200    1.0610    0.3530 C.ar    1  UNL1        0.0608
     13 C           2.2940   -0.4930   -0.8690 C.ar    1  UNL1        0.0436
     14 C          -1.4710   -0.4910    1.5320 C.3     1  UNL1        0.0452
     15 C          -2.4160   -1.0440    0.4960 C.ar    1  UNL1       -0.0297
     16 C          -2.5620   -2.4110    0.3540 C.ar    1  UNL1       -0.0571
     17 C          -3.4280   -2.9180   -0.5960 C.ar    1  UNL1       -0.0615
     18 C          -4.1490   -2.0590   -1.4040 C.ar    1  UNL1       -0.0617
     19 C          -4.0030   -0.6910   -1.2620 C.ar    1  UNL1       -0.0615
     20 C          -3.1400   -0.1840   -0.3070 C.ar    1  UNL1       -0.0571
     21 F          -1.0200    4.4790    1.0970 F       1  UNL1       -0.2054
     22 N           1.2600    0.1790   -1.5100 N.pl3   1  UNL1       -0.3124
     23 N          -0.1760   -0.2060    0.9100 N.am    1  UNL1       -0.2612
     24 O           0.3940   -2.2150    1.4900 O.2     1  UNL1       -0.2696
     25 H           2.9780   -2.1860    1.9950 H       1  UNL1        0.0626
     26 H           5.2240   -2.1560    1.0040 H       1  UNL1        0.0618
     27 H           5.5980   -1.1110   -1.1910 H       1  UNL1        0.0618
     28 H           3.7370   -0.0410   -2.3880 H       1  UNL1        0.0636
     29 H          -1.0590    2.0220    1.9630 H       1  UNL1        0.0665
     30 H           0.1960    4.5850   -1.2090 H       1  UNL1        0.0647
     31 H           1.1920    2.6570   -2.3740 H       1  UNL1        0.0638
     32 H          -1.8850    0.4280    1.9470 H       1  UNL1        0.0518
     33 H          -1.3380   -1.2220    2.3300 H       1  UNL1        0.0518
     34 H          -1.9990   -3.0830    0.9850 H       1  UNL1        0.0621
     35 H          -3.5420   -3.9870   -0.7080 H       1  UNL1        0.0618
     36 H          -4.8250   -2.4550   -2.1470 H       1  UNL1        0.0618
     37 H          -4.5650   -0.0190   -1.8930 H       1  UNL1        0.0618
     38 H          -3.0300    0.8840   -0.1930 H       1  UNL1        0.0621
     39 H           0.9750   -0.0910   -2.3970 H       1  UNL1        0.1522
@<TRIPOS>BOND
     1     1     6    1
     2     1     2   ar
     3     2    25    1
     4     3     2   ar
     5     3    26    1
     6     4     3   ar
     7     4    27    1
     8     5    13   ar
     9     5     4   ar
    10     5    28    1
    11     6    23   am
    12     7     8   ar
    13     7    29    1
    14     8    21    1
    15     9     8   ar
    16     9    30    1
    17    10     9   ar
    18    10    31    1
    19    11    10   ar
    20    11    12   ar
    21    12     7   ar
    22    13     1   ar
    23    14    15    1
    24    14    32    1
    25    14    33    1
    26    15    16   ar
    27    16    17   ar
    28    16    34    1
    29    17    35    1
    30    18    17   ar
    31    18    36    1
    32    19    18   ar
    33    19    37    1
    34    20    15   ar
    35    20    19   ar
    36    20    38    1
    37    22    13    1
    38    22    11    1
    39    22    39    1
    40    23    14    1
    41    23    12    1
    42    24     6    2
