@<TRIPOS>MOLECULE
9LL
 41 44 0 0 0
SMALL
GASTEIGER

@<TRIPOS>ATOM
      1 C          -1.0390   -0.5520   -0.6100 C.2     1  UNL1        0.2438
      2 C          -4.9350   -2.6200    0.5380 C.ar    1  UNL1       -0.0030
      3 C           3.1280   -0.9980    0.6280 C.ar    1  UNL1        0.0416
      4 C           3.9780   -1.3430    1.6800 C.ar    1  UNL1       -0.0493
      5 C           5.1970   -1.9300    1.4130 C.ar    1  UNL1       -0.0610
      6 C           4.7440   -1.8400   -0.9420 C.ar    1  UNL1       -0.0563
      7 C           2.4040   -0.7740   -1.5730 C.3     1  UNL1        0.0418
      8 C           0.6490    2.7670   -1.0490 C.ar    1  UNL1        0.1224
      9 C           0.5110    4.0370   -0.5090 C.ar    1  UNL1       -0.0171
     10 C          -0.3340    4.2420    0.5640 C.ar    1  UNL1       -0.0230
     11 C          -1.0430    3.1810    1.1010 C.ar    1  UNL1        0.1240
     12 C          -0.9060    1.9120    0.5620 C.ar    1  UNL1       -0.0175
     13 C          -0.0620    1.7040   -0.5110 C.ar    1  UNL1        0.0260
     14 C           0.0870    0.3240   -1.0970 C.3     1  UNL1        0.1318
     15 C          -3.3300   -1.1610   -0.6270 C.ar    1  UNL1        0.1644
     16 C          -5.4330   -1.8830   -0.4560 C.ar    1  UNL1        0.0368
     17 C           1.7900   -0.3770    0.5930 C.2     1  UNL1        0.2481
     18 C           5.5820   -2.1790    0.1080 C.ar    1  UNL1       -0.0614
     19 C           3.5260   -1.2540   -0.6870 C.ar    1  UNL1       -0.0180
     20 F          -1.8690    3.3830    2.1510 F       1  UNL1       -0.2055
     21 N          -2.2710   -0.4220   -1.1410 N.am    1  UNL1       -0.2629
     22 N          -4.5500   -1.1110   -1.0620 N.ar    1  UNL1       -0.2330
     23 N           1.3680   -0.2500   -0.6770 N.am    1  UNL1       -0.2774
     24 O           1.4760    2.5650   -2.1090 O.3     1  UNL1       -0.5064
     25 O          -0.8350   -1.3770    0.2540 O.2     1  UNL1       -0.2730
     26 O           1.1590   -0.0310    1.5730 O.2     1  UNL1       -0.2699
     27 S          -3.2160   -2.2620    0.6750 S.2     1  UNL1       -0.0605
     28 H          -5.4900   -3.3120    1.1540 H       1  UNL1        0.0709
     29 H           3.6810   -1.1500    2.7010 H       1  UNL1        0.0625
     30 H           5.8550   -2.1960    2.2270 H       1  UNL1        0.0618
     31 H           5.0470   -2.0350   -1.9600 H       1  UNL1        0.0621
     32 H           2.7630    0.0110   -2.2390 H       1  UNL1        0.0514
     33 H           2.0050   -1.6050   -2.1550 H       1  UNL1        0.0514
     34 H           1.0640    4.8650   -0.9270 H       1  UNL1        0.0655
     35 H          -0.4420    5.2310    0.9850 H       1  UNL1        0.0647
     36 H          -1.4590    1.0850    0.9820 H       1  UNL1        0.0651
     37 H           0.0560    0.3860   -2.1840 H       1  UNL1        0.0649
     38 H          -6.4740   -1.9160   -0.7430 H       1  UNL1        0.0835
     39 H           6.5380   -2.6390   -0.0930 H       1  UNL1        0.0618
     40 H          -2.4190    0.1870   -1.8810 H       1  UNL1        0.1568
     41 H           1.0690    2.7470   -2.9670 H       1  UNL1        0.2921
@<TRIPOS>BOND
     1     1    25    2
     2     2    28    1
     3     3    19   ar
     4     4     3   ar
     5     4     5   ar
     6     4    29    1
     7     5    18   ar
     8     5    30    1
     9     6    31    1
    10     7    19    1
    11     7    32    1
    12     7    33    1
    13     8    13   ar
    14     9     8   ar
    15     9    10   ar
    16     9    34    1
    17    10    11   ar
    18    10    35    1
    19    11    12   ar
    20    11    20    1
    21    12    36    1
    22    13    14    1
    23    13    12   ar
    24    14    23    1
    25    14     1    1
    26    14    37    1
    27    15    22   ar
    28    15    27   ar
    29    16     2   ar
    30    16    38    1
    31    17    23   am
    32    17     3    1
    33    18     6   ar
    34    18    39    1
    35    19     6   ar
    36    21     1   am
    37    21    15    1
    38    21    40    1
    39    22    16   ar
    40    23     7    1
    41    24     8    1
    42    24    41    1
    43    26    17    2
    44    27     2   ar
