@<TRIPOS>MOLECULE
8RC
 83 87 0 0 0
SMALL
GASTEIGER

@<TRIPOS>ATOM
      1 C           0.4180    2.8500   -0.4460 C.ar    1  UNL1       -0.0389
      2 C           0.0030    0.5980    0.2900 C.ar    1  UNL1       -0.0389
      3 C          -0.9240    3.1440   -0.3030 C.ar    1  UNL1       -0.0388
      4 C          -1.3390    0.8900    0.4280 C.ar    1  UNL1       -0.0388
      5 C           0.8850    1.5750   -0.1530 C.ar    1  UNL1        0.0298
      6 C          -1.8060    2.1650    0.1340 C.ar    1  UNL1        0.0325
      7 C          -5.4810    1.7830    0.1540 C.ar    1  UNL1        0.1655
      8 C          -6.0020   -0.4290   -0.1590 C.ar    1  UNL1        0.1033
      9 C          -4.1130    1.4650    0.1310 C.ar    1  UNL1        0.1575
     10 C          -4.6420   -0.7480   -0.1770 C.ar    1  UNL1        0.2388
     11 C          -5.9130    3.1810    0.3370 C.2     1  UNL1        0.2633
     12 C           0.2030   -3.5080    1.0170 C.2     1  UNL1        0.2390
     13 C           3.9780   -0.4530   -0.2550 C.3     1  UNL1       -0.0215
     14 C           4.5530    1.9370    0.1740 C.3     1  UNL1       -0.0215
     15 C          -2.6470   -3.5670   -1.4000 C.3     1  UNL1        0.0016
     16 C           2.5180   -0.1200    0.0600 C.3     1  UNL1        0.0136
     17 C           3.0760    2.2010    0.4750 C.3     1  UNL1        0.0136
     18 C          -1.2290   -4.0080   -0.9800 C.3     1  UNL1        0.0185
     19 C           6.5710    0.5560   -1.2100 C.3     1  UNL1        0.0120
     20 C           7.2070    0.9260    1.0960 C.3     1  UNL1        0.0120
     21 C           8.0160    0.1810   -1.5480 C.3     1  UNL1        0.0114
     22 C           8.6510    0.5510    0.7580 C.3     1  UNL1        0.0114
     23 C          -2.1230   -2.6020    0.7370 C.3     1  UNL1        0.0521
     24 C           4.8920    0.4880    0.5340 C.3     1  UNL1        0.0133
     25 C          -2.8620   -2.2660   -0.5820 C.3     1  UNL1        0.1189
     26 C          -7.3510   -1.6890   -1.8140 C.3     1  UNL1       -0.0597
     27 C           2.4360   -4.4460    1.1690 C.2     1  UNL1       -0.0938
     28 C          10.3300    0.6180   -0.9860 C.3     1  UNL1       -0.0127
     29 C          -7.0300   -1.5170   -0.3280 C.3     1  UNL1       -0.0081
     30 C           1.3040   -4.3240    0.4820 C.2     1  UNL1       -0.0067
     31 N          -6.3870    0.8180    0.0040 N.ar    1  UNL1       -0.2383
     32 N          -3.7320    0.2040   -0.0340 N.ar    1  UNL1       -0.1939
     33 N           2.2430    1.2760   -0.3040 N.pl3   1  UNL1       -0.3298
     34 N          -0.9450   -3.3840    0.3200 N.am    1  UNL1       -0.2944
     35 N           6.2940    0.2130    0.1920 N.3     1  UNL1       -0.2969
     36 N           8.9290    0.8940   -0.6440 N.3     1  UNL1       -0.3029
     37 N          -7.2190    3.4650    0.5170 N.am    1  UNL1       -0.3240
     38 N          -3.1670    2.4630    0.2800 N.pl3   1  UNL1       -0.2975
     39 O          -5.0920    4.0770    0.3250 O.2     1  UNL1       -0.2686
     40 O           0.3270   -2.9450    2.0880 O.2     1  UNL1       -0.2706
     41 O          -4.2520   -2.0350   -0.3450 O.3     1  UNL1       -0.4702
     42 H           1.1030    3.6100   -0.7910 H       1  UNL1        0.0637
     43 H           0.3660   -0.3930    0.5190 H       1  UNL1        0.0637
     44 H          -1.2870    4.1350   -0.5310 H       1  UNL1        0.0637
     45 H          -2.0250    0.1300    0.7720 H       1  UNL1        0.0637
     46 H           4.1860   -1.4850    0.0300 H       1  UNL1        0.0295
     47 H           4.1590   -0.3260   -1.3220 H       1  UNL1        0.0295
     48 H           4.7420    2.1020   -0.8870 H       1  UNL1        0.0295
     49 H           5.1720    2.6140    0.7630 H       1  UNL1        0.0295
     50 H          -2.6850   -3.3600   -2.4700 H       1  UNL1        0.0317
     51 H          -3.3830   -4.3220   -1.1250 H       1  UNL1        0.0317
     52 H           1.8640   -0.7800   -0.5110 H       1  UNL1        0.0464
     53 H           2.3340   -0.2610    1.1250 H       1  UNL1        0.0464
     54 H           2.8900    2.0490    1.5390 H       1  UNL1        0.0464
     55 H           2.8280    3.2270    0.2060 H       1  UNL1        0.0464
     56 H          -1.1900   -5.0930   -0.8880 H       1  UNL1        0.0466
     57 H          -0.5020   -3.6710   -1.7200 H       1  UNL1        0.0466
     58 H           6.4290    1.6260   -1.3570 H       1  UNL1        0.0439
     59 H           5.8910    0.0060   -1.8600 H       1  UNL1        0.0439
     60 H           6.9900    0.6460    2.1270 H       1  UNL1        0.0439
     61 H           7.0720    2.0010    0.9760 H       1  UNL1        0.0439
     62 H           8.1500   -0.8940   -1.4270 H       1  UNL1        0.0439
     63 H           8.2320    0.4600   -2.5790 H       1  UNL1        0.0439
     64 H           9.3320    1.1010    1.4090 H       1  UNL1        0.0439
     65 H           8.7930   -0.5200    0.9050 H       1  UNL1        0.0439
     66 H          -1.8120   -1.6870    1.2410 H       1  UNL1        0.0501
     67 H          -2.7610   -3.1970    1.3910 H       1  UNL1        0.0501
     68 H           4.7400    0.3340    1.6020 H       1  UNL1        0.0463
     69 H          -2.4050   -1.4110   -1.0790 H       1  UNL1        0.0750
     70 H          -7.7430   -0.7530   -2.2120 H       1  UNL1        0.0233
     71 H          -6.4430   -1.9610   -2.3520 H       1  UNL1        0.0233
     72 H          -8.0950   -2.4760   -1.9360 H       1  UNL1        0.0233
     73 H           3.2440   -5.0440    0.7770 H       1  UNL1        0.0536
     74 H           2.5470   -3.9460    2.1200 H       1  UNL1        0.0536
     75 H          10.5390   -0.4420   -0.8370 H       1  UNL1        0.0391
     76 H          10.5080    0.8810   -2.0290 H       1  UNL1        0.0391
     77 H          10.9840    1.2100   -0.3450 H       1  UNL1        0.0391
     78 H          -6.6390   -2.4530    0.0700 H       1  UNL1        0.0327
     79 H          -7.9380   -1.2450    0.2100 H       1  UNL1        0.0327
     80 H           1.1930   -4.8230   -0.4690 H       1  UNL1        0.0663
     81 H          -7.8740    2.7490    0.5270 H       1  UNL1        0.1453
     82 H          -7.5030    4.3840    0.6380 H       1  UNL1        0.1453
     83 H          -3.4450    3.3690    0.4850 H       1  UNL1        0.1536
@<TRIPOS>BOND
     1     1     5   ar
     2     1    42    1
     3     2     5   ar
     4     2    43    1
     5     3     1   ar
     6     3    44    1
     7     4     2   ar
     8     4    45    1
     9     5    33    1
    10     6     3   ar
    11     6     4   ar
    12     7    11    1
    13     7     9   ar
    14     8    31   ar
    15     8    10   ar
    16     9    38    1
    17    10    32   ar
    18    11    39    2
    19    12    30    1
    20    13    24    1
    21    13    46    1
    22    13    47    1
    23    14    24    1
    24    14    48    1
    25    14    49    1
    26    15    25    1
    27    15    18    1
    28    15    50    1
    29    15    51    1
    30    16    13    1
    31    16    52    1
    32    16    53    1
    33    17    14    1
    34    17    54    1
    35    17    55    1
    36    18    34    1
    37    18    56    1
    38    18    57    1
    39    19    21    1
    40    19    58    1
    41    19    59    1
    42    20    22    1
    43    20    60    1
    44    20    61    1
    45    21    62    1
    46    21    63    1
    47    22    36    1
    48    22    64    1
    49    22    65    1
    50    23    34    1
    51    23    66    1
    52    23    67    1
    53    24    35    1
    54    24    68    1
    55    25    23    1
    56    25    69    1
    57    26    29    1
    58    26    70    1
    59    26    71    1
    60    26    72    1
    61    27    73    1
    62    27    74    1
    63    28    75    1
    64    28    76    1
    65    28    77    1
    66    29     8    1
    67    29    78    1
    68    29    79    1
    69    30    27    2
    70    30    80    1
    71    31     7   ar
    72    32     9   ar
    73    33    16    1
    74    33    17    1
    75    34    12   am
    76    35    20    1
    77    35    19    1
    78    36    21    1
    79    36    28    1
    80    37    11   am
    81    37    81    1
    82    37    82    1
    83    38     6    1
    84    38    83    1
    85    40    12    2
    86    41    10    1
    87    41    25    1
