@<TRIPOS>MOLECULE
M0R
 52 55 0 0 0
SMALL
GASTEIGER

@<TRIPOS>ATOM
      1 C          -1.6960   -2.9280   -0.1340 C.ar    1  UNL1        0.0000
      2 C          -1.1100   -1.6390   -0.1290 C.ar    1  UNL1        0.0000
      3 C          -3.6020    1.6550   -0.4330 C.3     1  UNL1        0.0000
      4 C          -3.1010    2.6480    0.6180 C.3     1  UNL1        0.0000
      5 C          -1.8340    4.6770    0.7930 C.3     1  UNL1        0.0000
      6 C          -0.6870    5.2540   -0.0390 C.3     1  UNL1        0.0000
      7 C           1.4820    4.3750   -0.5650 C.3     1  UNL1        0.0000
      8 C           0.4140   -3.8480   -0.2700 C.ar    1  UNL1        0.0000
      9 C          -1.9200   -0.5020   -0.0120 C.ar    1  UNL1        0.0000
     10 C          -3.0890   -3.0490   -0.0580 C.ar    1  UNL1        0.0000
     11 C           3.0400   -1.3540    0.1000 C.ar    1  UNL1        0.0000
     12 C          -3.2760   -0.6440    0.0800 C.ar    1  UNL1        0.0000
     13 C           2.4090    3.2810   -0.0320 C.3     1  UNL1        0.0000
     14 C          -3.8650   -1.9150    0.0480 C.ar    1  UNL1        0.0000
     15 C          -5.7580   -3.3530    0.0850 C.3     1  UNL1        0.0000
     16 C           4.4160   -1.2610    0.2240 C.ar    1  UNL1        0.0000
     17 C           5.0510   -0.0480    0.0240 C.ar    1  UNL1        0.0000
     18 C           4.3170    1.0770   -0.3070 C.ar    1  UNL1        0.0000
     19 C           2.9410    0.9900   -0.4350 C.ar    1  UNL1        0.0000
     20 C           2.3010   -0.2300   -0.2210 C.ar    1  UNL1        0.0000
     21 C           0.2980   -1.5440   -0.2330 C.ar    1  UNL1        0.0000
     22 N           0.8970   -0.2920   -0.3100 N.pl3   1  UNL1        0.0000
     23 N           1.0040   -2.6610   -0.2850 N.ar    1  UNL1        0.0000
     24 N          -0.8880   -3.9980   -0.2060 N.ar    1  UNL1        0.0000
     25 O          -4.0550    0.4620    0.2130 O.3     1  UNL1        0.0000
     26 O          -2.6440    3.8360   -0.0320 O.3     1  UNL1        0.0000
     27 O           0.5580    4.7580    0.4560 O.3     1  UNL1        0.0000
     28 O           2.2130    2.0830   -0.7840 O.3     1  UNL1        0.0000
     29 O          -5.2170   -2.0310    0.1220 O.3     1  UNL1        0.0000
     30 *           5.3460   -2.6700    0.6310 Du      1  UNL1        0.0000
     31 H          -4.4250    2.1010   -0.9910 H       1  UNL1        0.0000
     32 H          -2.7900    1.4100   -1.1170 H       1  UNL1        0.0000
     33 H          -3.9140    2.8970    1.3000 H       1  UNL1        0.0000
     34 H          -2.2800    2.2010    1.1780 H       1  UNL1        0.0000
     35 H          -1.4260    4.0930    1.6180 H       1  UNL1        0.0000
     36 H          -2.4410    5.4910    1.1890 H       1  UNL1        0.0000
     37 H          -0.8080    4.9560   -1.0810 H       1  UNL1        0.0000
     38 H          -0.6980    6.3420    0.0310 H       1  UNL1        0.0000
     39 H           2.0740    5.2410   -0.8620 H       1  UNL1        0.0000
     40 H           0.9330    3.9980   -1.4280 H       1  UNL1        0.0000
     41 H           1.0330   -4.7320   -0.3140 H       1  UNL1        0.0000
     42 H          -1.4740    0.4820    0.0060 H       1  UNL1        0.0000
     43 H          -3.5520   -4.0240   -0.0830 H       1  UNL1        0.0000
     44 H           2.5450   -2.3010    0.2530 H       1  UNL1        0.0000
     45 H           3.4450    3.6040   -0.1280 H       1  UNL1        0.0000
     46 H           2.1830    3.0920    1.0170 H       1  UNL1        0.0000
     47 H          -6.8450   -3.3030    0.1530 H       1  UNL1        0.0000
     48 H          -5.4740   -3.8360   -0.8500 H       1  UNL1        0.0000
     49 H          -5.3680   -3.9290    0.9240 H       1  UNL1        0.0000
     50 H           6.1230    0.0210    0.1270 H       1  UNL1        0.0000
     51 H           4.8170    2.0210   -0.4650 H       1  UNL1        0.0000
     52 H           0.3660    0.5130   -0.4210 H       1  UNL1        0.0000
@<TRIPOS>BOND
     1     1    24   ar
     2     1     2   ar
     3     2    21   ar
     4     3    31    1
     5     3    32    1
     6     4     3    1
     7     4    26    1
     8     4    33    1
     9     4    34    1
    10     5     6    1
    11     5    35    1
    12     5    36    1
    13     6    27    1
    14     6    37    1
    15     6    38    1
    16     7    13    1
    17     7    39    1
    18     7    40    1
    19     8    23   ar
    20     8    41    1
    21     9     2   ar
    22     9    42    1
    23    10     1   ar
    24    10    43    1
    25    11    16   ar
    26    11    44    1
    27    12     9   ar
    28    13    45    1
    29    13    46    1
    30    14    10   ar
    31    14    12   ar
    32    15    29    1
    33    15    47    1
    34    15    48    1
    35    15    49    1
    36    16    17   ar
    37    16    30    1
    38    17    50    1
    39    18    17   ar
    40    18    51    1
    41    19    18   ar
    42    20    19   ar
    43    20    11   ar
    44    21    23   ar
    45    21    22    1
    46    22    20    1
    47    22    52    1
    48    24     8   ar
    49    25    12    1
    50    25     3    1
    51    26     5    1
    52    27     7    1
    53    28    13    1
    54    28    19    1
    55    29    14    1
