@<TRIPOS>MOLECULE
M19
 34 36 0 0 0
SMALL
GASTEIGER

@<TRIPOS>ATOM
      1 C          -0.4030   -0.1170    0.2230 C.ar    1  UNL1        0.0000
      2 C           1.7990    0.8390    0.0300 C.ar    1  UNL1        0.0000
      3 C           2.3660   -0.3950   -0.2470 C.ar    1  UNL1        0.0000
      4 C           3.7420   -0.5370   -0.2600 C.ar    1  UNL1        0.0000
      5 C           4.5550    0.5530    0.0040 C.ar    1  UNL1        0.0000
      6 C          -3.8000    1.2370   -0.3330 C.ar    1  UNL1        0.0000
      7 C          -4.5730    0.0830   -0.1410 C.ar    1  UNL1        0.0000
      8 C          -6.6560   -1.0580   -0.0510 C.3     1  UNL1        0.0000
      9 C          -3.9770   -1.1200    0.1680 C.ar    1  UNL1        0.0000
     10 C          -2.5830   -1.1880    0.2900 C.ar    1  UNL1        0.0000
     11 C          -0.6470   -2.3660    0.7030 C.ar    1  UNL1        0.0000
     12 C           3.9940    1.7880    0.2820 C.ar    1  UNL1        0.0000
     13 C           2.6170    1.9350    0.2960 C.ar    1  UNL1        0.0000
     14 C          -1.8090   -0.0170    0.0930 C.ar    1  UNL1        0.0000
     15 C          -2.4400    1.1930   -0.2200 C.ar    1  UNL1        0.0000
     16 F           5.8990    0.4100   -0.0080 F       1  UNL1        0.0000
     17 N          -1.9540   -2.3340    0.5900 N.ar    1  UNL1        0.0000
     18 N           0.1170   -1.3010    0.5230 N.ar    1  UNL1        0.0000
     19 N           0.4050    0.9860    0.0380 N.pl3   1  UNL1        0.0000
     20 O          -4.4120    2.4120   -0.6380 O.3     1  UNL1        0.0000
     21 O          -5.9240    0.1520   -0.2590 O.3     1  UNL1        0.0000
     22 O           2.0650    3.1480    0.5690 O.3     1  UNL1        0.0000
     23 *           4.4510   -2.0830   -0.6080 Du      1  UNL1        0.0000
     24 H           1.7340   -1.2460   -0.4530 H       1  UNL1        0.0000
     25 H          -6.3370   -1.8060   -0.7760 H       1  UNL1        0.0000
     26 H          -6.4690   -1.4270    0.9580 H       1  UNL1        0.0000
     27 H          -7.7220   -0.8640   -0.1750 H       1  UNL1        0.0000
     28 H          -4.5790   -2.0040    0.3150 H       1  UNL1        0.0000
     29 H          -0.1730   -3.3060    0.9450 H       1  UNL1        0.0000
     30 H           4.6300    2.6360    0.4880 H       1  UNL1        0.0000
     31 H          -1.8540    2.0870   -0.3710 H       1  UNL1        0.0000
     32 H           0.0090    1.8620   -0.0870 H       1  UNL1        0.0000
     33 H          -4.5230    2.5640   -1.5860 H       1  UNL1        0.0000
     34 H           1.8920    3.2990    1.5080 H       1  UNL1        0.0000
@<TRIPOS>BOND
     1     1    18   ar
     2     1    19    1
     3     2     3   ar
     4     2    13   ar
     5     3     4   ar
     6     3    24    1
     7     4    23    1
     8     4     5   ar
     9     5    16    1
    10     6    15   ar
    11     7     9   ar
    12     7     6   ar
    13     8    21    1
    14     8    25    1
    15     8    26    1
    16     8    27    1
    17     9    10   ar
    18     9    28    1
    19    10    17   ar
    20    10    14   ar
    21    11    18   ar
    22    11    29    1
    23    12     5   ar
    24    12    30    1
    25    13    12   ar
    26    14     1   ar
    27    15    14   ar
    28    15    31    1
    29    17    11   ar
    30    19     2    1
    31    19    32    1
    32    20     6    1
    33    20    33    1
    34    21     7    1
    35    22    13    1
    36    22    34    1
