@<TRIPOS>MOLECULE
7XO
33 37 0 0 0
SMALL
NO_CHARGES

@<TRIPOS>ATOM
     1 C4         -52.5150     0.0770   -21.7770 C.ar     1 LIG 0.0000
     2 C5         -53.4240     0.7370   -22.5670 C.ar     1 LIG 0.0000
     3 C6         -54.3730     1.5280   -21.9730 C.ar     1 LIG 0.0000
     4 C8         -52.1430    -0.3690   -23.8380 C.ar     1 LIG 0.0000
     5 N1         -54.3860     1.6360   -20.6770 N.ar     1 LIG 0.0000
     6 N2         -53.6020     1.1660   -18.6400 N.ar     1 LIG 0.0000
     7 N3         -52.5650     0.2100   -20.4540 N.ar     1 LIG 0.0000
     8 CAP        -50.3330    -0.1340   -13.5180 C.ar     1 LIG 0.0000
     9 CAN        -50.3100    -1.3310   -12.5920 C.ar     1 LIG 0.0000
    10 NBE        -49.0150    -1.9710   -12.7570 N.ar     1 LIG 0.0000
    11 CAC        -48.8530    -2.9780   -11.7130 C.ar     1 LIG 0.0000
    12 CAO        -48.9630    -2.6070   -14.0720 C.ar     1 LIG 0.0000
    13 CAQ        -48.9810    -1.5340   -15.1530 C.ar     1 LIG 0.0000
    14 NBF        -50.0820    -0.5980   -14.8840 N.ar     1 LIG 0.0000
    15 CAY        -50.9440    -0.1720   -15.8820 C.ar     1 LIG 0.0000
    16 CAL        -51.9410     0.7060   -15.5240 C.ar     1 LIG 0.0000
    17 CAJ        -52.8300     1.1480   -16.4770 C.ar     1 LIG 0.0000
    18 CAK        -50.8380    -0.6130   -17.1890 C.ar     1 LIG 0.0000
    19 CAI        -51.7330    -0.1680   -18.1490 C.ar     1 LIG 0.0000
    20 CAX        -52.7240     0.7150   -17.7800 C.ar     1 LIG 0.0000
    21 C2         -53.5040     0.9920   -19.9290 C.ar     1 LIG 0.0000
    22 N7         -53.1740     0.4420   -23.8330 N.ar     1 LIG 0.0000
    23 N9         -51.7510    -0.5910   -22.6090 N.ar     1 LIG 0.0000
    24 CBD        -50.6360    -1.4310   -22.2350 C.ar     1 LIG 0.0000
    25 CAB        -49.9540    -0.7890   -21.0420 C.ar     1 LIG 0.0000
    26 CAA        -51.1540    -2.8220   -21.9130 C.ar     1 LIG 0.0000
    27 NAV        -51.5960    -0.8860   -24.9170 N.ar     1 LIG 0.0000
    28 CAW        -51.9170    -0.4240   -26.1110 C.ar     1 LIG 0.0000
    29 CAG        -52.2630     0.9010   -26.2810 C.ar     1 LIG 0.0000
    30 CAE        -52.5920     1.3740   -27.5410 C.ar     1 LIG 0.0000
    31 CAD        -52.5800     0.5230   -28.6280 C.ar     1 LIG 0.0000
    32 CAF        -52.2410    -0.8020   -28.4510 C.ar     1 LIG 0.0000
    33 CAH        -51.9070    -1.2740   -27.1960 C.ar     1 LIG 0.0000
@<TRIPOS>BOND
     1   31   32 2
     2   31   30 1
     3   32   33 1
     4   30   29 2
     5   33   28 2
     6   29   28 1
     7   28   27 1
     8   27    4 1
     9    4   22 2
    10    4   23 1
    11   22    2 1
    12   23   24 1
    13   23    1 1
    14    2    3 2
    15    2    1 1
    16   24   26 1
    17   24   25 1
    18    3    5 1
    19    1    7 2
    20    5   21 2
    21    7   21 1
    22   21    6 1
    23    6   20 1
    24   19   20 2
    25   19   18 1
    26   20   17 1
    27   18   15 2
    28   17   16 2
    29   15   16 1
    30   15   14 1
    31   13   14 1
    32   13   12 1
    33   14    8 1
    34   12   10 1
    35    8    9 1
    36   10    9 1
    37   10   11 1
