7XO
     RDKit          3D

 33 37  0  0  0  0  0  0  0  0999 V2000
    2.2430   -1.1930   -0.0470 C   0  0  0  0  0  0  0  0  0  0  0  0
    2.1500    0.2120    0.0070 C   0  0  0  0  0  0  0  0  0  0  0  0
    0.8820    0.7910    0.0510 C   0  0  0  0  0  0  0  0  0  0  0  0
    4.2660   -0.2980   -0.0480 C   0  0  0  0  0  0  0  0  0  0  0  0
   -0.1780    0.0000    0.0390 N   0  0  0  0  0  0  0  0  0  0  0  0
   -1.1970   -2.1030   -0.0230 N   0  0  0  0  0  0  0  0  0  0  0  0
    1.1310   -1.9130   -0.0560 N   0  0  0  0  0  0  0  0  0  0  0  0
   -6.1520    1.6910    0.3170 C   0  0  0  0  0  0  0  0  0  0  0  0
   -7.5240    2.3150    0.5860 C   0  0  0  0  0  0  0  0  0  0  0  0
   -8.5380    1.6340   -0.2310 N   0  0  0  0  0  0  0  0  0  0  0  0
   -8.2930    1.8520   -1.6630 C   0  0  0  0  0  0  0  0  0  0  0  0
   -8.5860    0.1990    0.0820 C   0  0  0  0  0  0  0  0  0  0  0  0
   -7.2140   -0.4250   -0.1870 C   0  0  0  0  0  0  0  0  0  0  0  0
   -6.2000    0.2560    0.6300 N   0  0  0  0  0  0  0  0  0  0  0  0
   -4.9430   -0.3360    0.4650 C   0  0  0  0  0  0  0  0  0  0  0  0
   -3.8450    0.1620    1.1540 C   0  0  0  0  0  0  0  0  0  0  0  0
   -2.6040   -0.4220    0.9920 C   0  0  0  0  0  0  0  0  0  0  0  0
   -4.7940   -1.4250   -0.3830 C   0  0  0  0  0  0  0  0  0  0  0  0
   -3.5540   -2.0130   -0.5420 C   0  0  0  0  0  0  0  0  0  0  0  0
   -2.4540   -1.5070    0.1390 C   0  0  0  0  0  0  0  0  0  0  0  0
   -0.0520   -1.3190   -0.0130 C   0  0  0  0  0  0  0  0  0  0  0  0
    3.4180    0.6980    0.0040 N   0  0  0  0  0  0  0  0  0  0  0  0
    3.5870   -1.4850   -0.0860 N   0  0  0  0  0  0  0  0  0  0  0  0
    4.1810   -2.8230   -0.1480 C   0  0  0  0  0  0  0  0  0  0  0  0
    5.0300   -2.9460   -1.4150 C   0  0  0  0  0  0  0  0  0  0  0  0
    5.0650   -3.0460    1.0810 C   0  0  0  0  0  0  0  0  0  0  0  0
    5.6410   -0.1700   -0.0660 N   0  0  0  0  0  0  0  0  0  0  0  0
    6.2250    1.1000   -0.0550 C   0  0  0  0  0  0  0  0  0  0  0  0
    7.4750    1.2870    0.5200 C   0  0  0  0  0  0  0  0  0  0  0  0
    8.0490    2.5430    0.5290 C   0  0  0  0  0  0  0  0  0  0  0  0
    7.3810    3.6140   -0.0340 C   0  0  0  0  0  0  0  0  0  0  0  0
    6.1350    3.4320   -0.6070 C   0  0  0  0  0  0  0  0  0  0  0  0
    5.5580    2.1780   -0.6250 C   0  0  0  0  0  0  0  0  0  0  0  0
  1  7  1  0
  2  3  1  0
  2  1  2  0
  3  5  2  0
  4 22  2  0
  4 23  1  0
  5 21  1  0
  6 20  1  0
  7 21  2  0
  8  9  1  0
 10  9  1  0
 10 11  1  0
 12 10  1  0
 13 14  1  0
 13 12  1  0
 14  8  1  0
 15 16  1  0
 15 14  1  0
 17 16  2  0
 18 15  2  0
 19 20  2  0
 19 18  1  0
 20 17  1  0
 21  6  1  0
 22  2  1  0
 23 24  1  0
 23  1  1  0
 24 26  1  0
 24 25  1  0
 27  4  1  0
 28 27  1  0
 29 28  2  0
 30 29  1  0
 31 32  1  0
 31 30  2  0
 32 33  2  0
 33 28  1  0
M  END
$$$$
