7XO
  CCTOOLS-0919241030

 63 67  0  0  0  0  0  0  0  0999 V2000
    2.2430   -1.1930   -0.0470 C   0  0  0  0  0
    2.1500    0.2120    0.0070 C   0  0  0  0  0
    0.8820    0.7910    0.0510 C   0  0  0  0  0
    4.2660   -0.2980   -0.0480 C   0  0  0  0  0
   -0.1780    0.0000    0.0390 N   0  0  0  0  0
   -1.1970   -2.1030   -0.0230 N   0  0  0  0  0
    1.1310   -1.9130   -0.0560 N   0  0  0  0  0
   -6.1520    1.6910    0.3170 C   0  0  0  0  0
   -7.5240    2.3150    0.5860 C   0  0  0  0  0
   -8.5380    1.6340   -0.2310 N   0  0  0  0  0
   -8.2930    1.8520   -1.6630 C   0  0  0  0  0
   -8.5860    0.1990    0.0820 C   0  0  0  0  0
   -7.2140   -0.4250   -0.1870 C   0  0  0  0  0
   -6.2000    0.2560    0.6300 N   0  0  0  0  0
   -4.9430   -0.3360    0.4650 C   0  0  0  0  0
   -3.8450    0.1620    1.1540 C   0  0  0  0  0
   -2.6040   -0.4220    0.9920 C   0  0  0  0  0
   -4.7940   -1.4250   -0.3830 C   0  0  0  0  0
   -3.5540   -2.0130   -0.5420 C   0  0  0  0  0
   -2.4540   -1.5070    0.1390 C   0  0  0  0  0
   -0.0520   -1.3190   -0.0130 C   0  0  0  0  0
    3.4180    0.6980    0.0040 N   0  0  0  0  0
    3.5870   -1.4850   -0.0860 N   0  0  0  0  0
    4.1810   -2.8230   -0.1480 C   0  0  0  0  0
    5.0300   -2.9460   -1.4150 C   0  0  0  0  0
    5.0650   -3.0460    1.0810 C   0  0  0  0  0
    5.6410   -0.1700   -0.0660 N   0  0  0  0  0
    6.2250    1.1000   -0.0550 C   0  0  0  0  0
    7.4750    1.2870    0.5200 C   0  0  0  0  0
    8.0490    2.5430    0.5290 C   0  0  0  0  0
    7.3810    3.6140   -0.0340 C   0  0  0  0  0
    6.1350    3.4320   -0.6070 C   0  0  0  0  0
    5.5580    2.1780   -0.6250 C   0  0  0  0  0
    0.7680    1.8640    0.0930 H   0  0  0  0  0
   -1.1270   -3.0630   -0.1420 H   0  0  0  0  0
   -5.8910    1.8250   -0.7330 H   0  0  0  0  0
   -5.4030    2.1750    0.9430 H   0  0  0  0  0
   -7.7730    2.2040    1.6410 H   0  0  0  0  0
   -7.4980    3.3730    0.3270 H   0  0  0  0  0
   -7.3110    1.4610   -1.9280 H   0  0  0  0  0
   -9.0580    1.3380   -2.2450 H   0  0  0  0  0
   -8.3290    2.9200   -1.8800 H   0  0  0  0  0
   -8.8470    0.0640    1.1310 H   0  0  0  0  0
   -9.3350   -0.2850   -0.5450 H   0  0  0  0  0
   -7.2390   -1.4840    0.0720 H   0  0  0  0  0
   -6.9650   -0.3150   -1.2420 H   0  0  0  0  0
   -3.9610    1.0070    1.8170 H   0  0  0  0  0
   -1.7510   -0.0340    1.5270 H   0  0  0  0  0
   -5.6480   -1.8130   -0.9190 H   0  0  0  0  0
   -3.4380   -2.8570   -1.2060 H   0  0  0  0  0
    3.3890   -3.5720   -0.1660 H   0  0  0  0  0
    5.8210   -2.1970   -1.3960 H   0  0  0  0  0
    5.4720   -3.9410   -1.4610 H   0  0  0  0  0
    4.4000   -2.7870   -2.2910 H   0  0  0  0  0
    4.4610   -2.9580    1.9840 H   0  0  0  0  0
    5.5070   -4.0410    1.0350 H   0  0  0  0  0
    5.8570   -2.2970    1.1000 H   0  0  0  0  0
    6.2020   -0.9610   -0.0860 H   0  0  0  0  0
    7.9980    0.4510    0.9610 H   0  0  0  0  0
    9.0220    2.6890    0.9760 H   0  0  0  0  0
    7.8300    4.5960   -0.0220 H   0  0  0  0  0
    5.6160    4.2710   -1.0460 H   0  0  0  0  0
    4.5860    2.0360   -1.0730 H   0  0  0  0  0
  1  7  2  0  0  0
  2  3  2  0  0  0
  2  1  1  0  0  0
  3  5  1  0  0  0
  3 34  1  0  0  0
  4 22  2  0  0  0
  4 23  1  0  0  0
  5 21  2  0  0  0
  6 20  1  0  0  0
  6 35  1  0  0  0
  7 21  1  0  0  0
  8  9  1  0  0  0
  8 36  1  0  0  0
  8 37  1  0  0  0
  9 38  1  0  0  0
  9 39  1  0  0  0
 10  9  1  0  0  0
 10 11  1  0  0  0
 11 40  1  0  0  0
 11 41  1  0  0  0
 11 42  1  0  0  0
 12 10  1  0  0  0
 12 43  1  0  0  0
 12 44  1  0  0  0
 13 14  1  0  0  0
 13 12  1  0  0  0
 13 45  1  0  0  0
 13 46  1  0  0  0
 14  8  1  0  0  0
 15 16  1  0  0  0
 15 14  1  0  0  0
 16 47  1  0  0  0
 17 16  2  0  0  0
 17 48  1  0  0  0
 18 15  2  0  0  0
 18 49  1  0  0  0
 19 20  2  0  0  0
 19 18  1  0  0  0
 19 50  1  0  0  0
 20 17  1  0  0  0
 21  6  1  0  0  0
 22  2  1  0  0  0
 23 24  1  0  0  0
 23  1  1  0  0  0
 24 26  1  0  0  0
 24 25  1  0  0  0
 24 51  1  0  0  0
 25 52  1  0  0  0
 25 53  1  0  0  0
 25 54  1  0  0  0
 26 55  1  0  0  0
 26 56  1  0  0  0
 26 57  1  0  0  0
 27  4  1  0  0  0
 27 58  1  0  0  0
 28 27  1  0  0  0
 29 28  1  0  0  0
 29 59  1  0  0  0
 30 29  2  0  0  0
 30 60  1  0  0  0
 31 32  2  0  0  0
 31 30  1  0  0  0
 31 61  1  0  0  0
 32 33  1  0  0  0
 32 62  1  0  0  0
 33 28  2  0  0  0
 33 63  1  0  0  0
M  END
$$$$
