7XR
  CCTOOLS-0919241031

 67 72  0  0  0  0  0  0  0  0999 V2000
    2.0070   -0.8370    0.0230 C   0  0  0  0  0
    1.8950    0.5670   -0.0120 C   0  0  0  0  0
    0.6190    1.1290   -0.0600 C   0  0  0  0  0
    4.0170    0.0850    0.0580 C   0  0  0  0  0
   -0.4300    0.3240   -0.0700 N   0  0  0  0  0
   -1.4200   -1.7940   -0.0500 N   0  0  0  0  0
    0.9040   -1.5730    0.0090 N   0  0  0  0  0
   -7.4030   -0.2540   -0.9920 C   0  0  0  0  0
   -8.7550    0.4590   -1.0630 C   0  0  0  0  0
   -9.2850    0.6350    0.2970 N   0  0  0  0  0
  -10.6190    1.2490    0.2670 C   0  0  0  0  0
   -8.3590    1.4260    1.1210 C   0  0  0  0  0
   -7.0070    0.7130    1.1910 C   0  0  0  0  0
   -6.4770    0.5370   -0.1680 N   0  0  0  0  0
   -5.2060   -0.0480   -0.1400 C   0  0  0  0  0
   -4.1840    0.5480    0.5870 C   0  0  0  0  0
   -2.9300   -0.0300    0.6160 C   0  0  0  0  0
   -4.9690   -1.2270   -0.8330 C   0  0  0  0  0
   -3.7160   -1.8070   -0.8010 C   0  0  0  0  0
   -2.6910   -1.2060   -0.0820 C   0  0  0  0  0
   -0.2860   -0.9940   -0.0360 C   0  0  0  0  0
    3.1560    1.0700    0.0120 N   0  0  0  0  0
    3.3540   -1.1120    0.0620 N   0  0  0  0  0
    3.9660   -2.4420    0.1080 C   0  0  0  0  0
    4.8640   -2.5680    1.3570 C   0  0  0  0  0
    6.0690   -3.4120    0.8740 C   0  0  0  0  0
    6.3020   -2.8850   -0.5640 C   0  0  0  0  0
    4.8810   -2.6440   -1.1130 C   0  0  0  0  0
    5.3900    0.2320    0.0980 N   0  0  0  0  0
    5.9600    1.5030   -0.0210 C   0  0  0  0  0
    7.1470    1.7970    0.6390 C   0  0  0  0  0
    7.7080    3.0530    0.5200 C   0  0  0  0  0
    7.0900    4.0170   -0.2550 C   0  0  0  0  0
    5.9090    3.7280   -0.9130 C   0  0  0  0  0
    5.3450    2.4720   -0.8030 C   0  0  0  0  0
    0.4910    2.2010   -0.0880 H   0  0  0  0  0
   -1.3330   -2.7600   -0.0360 H   0  0  0  0  0
   -7.5340   -1.2400   -0.5470 H   0  0  0  0  0
   -6.9950   -0.3600   -1.9970 H   0  0  0  0  0
   -8.6280    1.4340   -1.5330 H   0  0  0  0  0
   -9.4520   -0.1400   -1.6490 H   0  0  0  0  0
  -11.3010    0.6090   -0.2940 H   0  0  0  0  0
  -10.9870    1.3680    1.2860 H   0  0  0  0  0
  -10.5590    2.2250   -0.2140 H   0  0  0  0  0
   -8.2280    2.4120    0.6750 H   0  0  0  0  0
   -8.7680    1.5320    2.1260 H   0  0  0  0  0
   -6.3100    1.3120    1.7780 H   0  0  0  0  0
   -7.1340   -0.2620    1.6620 H   0  0  0  0  0
   -4.3700    1.4630    1.1300 H   0  0  0  0  0
   -2.1350    0.4340    1.1810 H   0  0  0  0  0
   -5.7640   -1.6910   -1.3980 H   0  0  0  0  0
   -3.5300   -2.7220   -1.3440 H   0  0  0  0  0
    3.1920   -3.2090    0.1250 H   0  0  0  0  0
    5.1950   -1.5840    1.6890 H   0  0  0  0  0
    4.3330   -3.0840    2.1570 H   0  0  0  0  0
    6.9440   -3.2290    1.4990 H   0  0  0  0  0
    5.8190   -4.4730    0.8640 H   0  0  0  0  0
    6.8660   -1.9530   -0.5410 H   0  0  0  0  0
    6.8240   -3.6310   -1.1630 H   0  0  0  0  0
    4.5510   -3.5090   -1.6880 H   0  0  0  0  0
    4.8690   -1.7520   -1.7390 H   0  0  0  0  0
    5.9580   -0.5470    0.2070 H   0  0  0  0  0
    7.6290    1.0440    1.2450 H   0  0  0  0  0
    8.6300    3.2830    1.0330 H   0  0  0  0  0
    7.5290    5.0010   -0.3430 H   0  0  0  0  0
    5.4290    4.4830   -1.5170 H   0  0  0  0  0
    4.4230    2.2460   -1.3170 H   0  0  0  0  0
  1  7  2  0  0  0
  2  3  2  0  0  0
  2  1  1  0  0  0
  3  5  1  0  0  0
  3 36  1  0  0  0
  4 23  1  0  0  0
  5 21  2  0  0  0
  6 20  1  0  0  0
  6 37  1  0  0  0
  7 21  1  0  0  0
  8 14  1  0  0  0
  8  9  1  0  0  0
  8 38  1  0  0  0
  8 39  1  0  0  0
  9 10  1  0  0  0
  9 40  1  0  0  0
  9 41  1  0  0  0
 10 12  1  0  0  0
 10 11  1  0  0  0
 11 42  1  0  0  0
 11 43  1  0  0  0
 11 44  1  0  0  0
 12 45  1  0  0  0
 12 46  1  0  0  0
 13 12  1  0  0  0
 13 47  1  0  0  0
 13 48  1  0  0  0
 14 13  1  0  0  0
 15 16  1  0  0  0
 15 14  1  0  0  0
 16 49  1  0  0  0
 17 16  2  0  0  0
 17 50  1  0  0  0
 18 15  2  0  0  0
 18 51  1  0  0  0
 19 20  2  0  0  0
 19 18  1  0  0  0
 19 52  1  0  0  0
 20 17  1  0  0  0
 21  6  1  0  0  0
 22  4  2  0  0  0
 22  2  1  0  0  0
 23 24  1  0  0  0
 23  1  1  0  0  0
 24 28  1  0  0  0
 24 25  1  0  0  0
 24 53  1  0  0  0
 25 26  1  0  0  0
 25 54  1  0  0  0
 25 55  1  0  0  0
 26 56  1  0  0  0
 26 57  1  0  0  0
 27 26  1  0  0  0
 27 58  1  0  0  0
 27 59  1  0  0  0
 28 27  1  0  0  0
 28 60  1  0  0  0
 28 61  1  0  0  0
 29  4  1  0  0  0
 29 62  1  0  0  0
 30 29  1  0  0  0
 31 30  1  0  0  0
 31 63  1  0  0  0
 32 31  2  0  0  0
 32 64  1  0  0  0
 33 34  2  0  0  0
 33 32  1  0  0  0
 33 65  1  0  0  0
 34 35  1  0  0  0
 34 66  1  0  0  0
 35 30  2  0  0  0
 35 67  1  0  0  0
M  END
$$$$
