7XR
     RDKit          3D

 35 40  0  0  0  0  0  0  0  0999 V2000
    2.0070   -0.8370    0.0230 C   0  0  0  0  0  0  0  0  0  0  0  0
    1.8950    0.5670   -0.0120 C   0  0  0  0  0  0  0  0  0  0  0  0
    0.6190    1.1290   -0.0600 C   0  0  0  0  0  0  0  0  0  0  0  0
    4.0170    0.0850    0.0580 C   0  0  0  0  0  0  0  0  0  0  0  0
   -0.4300    0.3240   -0.0700 N   0  0  0  0  0  0  0  0  0  0  0  0
   -1.4200   -1.7940   -0.0500 N   0  0  0  0  0  0  0  0  0  0  0  0
    0.9040   -1.5730    0.0090 N   0  0  0  0  0  0  0  0  0  0  0  0
   -7.4030   -0.2540   -0.9920 C   0  0  0  0  0  0  0  0  0  0  0  0
   -8.7550    0.4590   -1.0630 C   0  0  0  0  0  0  0  0  0  0  0  0
   -9.2850    0.6350    0.2970 N   0  0  0  0  0  0  0  0  0  0  0  0
  -10.6190    1.2490    0.2670 C   0  0  0  0  0  0  0  0  0  0  0  0
   -8.3590    1.4260    1.1210 C   0  0  0  0  0  0  0  0  0  0  0  0
   -7.0070    0.7130    1.1910 C   0  0  0  0  0  0  0  0  0  0  0  0
   -6.4770    0.5370   -0.1680 N   0  0  0  0  0  0  0  0  0  0  0  0
   -5.2060   -0.0480   -0.1400 C   0  0  0  0  0  0  0  0  0  0  0  0
   -4.1840    0.5480    0.5870 C   0  0  0  0  0  0  0  0  0  0  0  0
   -2.9300   -0.0300    0.6160 C   0  0  0  0  0  0  0  0  0  0  0  0
   -4.9690   -1.2270   -0.8330 C   0  0  0  0  0  0  0  0  0  0  0  0
   -3.7160   -1.8070   -0.8010 C   0  0  0  0  0  0  0  0  0  0  0  0
   -2.6910   -1.2060   -0.0820 C   0  0  0  0  0  0  0  0  0  0  0  0
   -0.2860   -0.9940   -0.0360 C   0  0  0  0  0  0  0  0  0  0  0  0
    3.1560    1.0700    0.0120 N   0  0  0  0  0  0  0  0  0  0  0  0
    3.3540   -1.1120    0.0620 N   0  0  0  0  0  0  0  0  0  0  0  0
    3.9660   -2.4420    0.1080 C   0  0  0  0  0  0  0  0  0  0  0  0
    4.8640   -2.5680    1.3570 C   0  0  0  0  0  0  0  0  0  0  0  0
    6.0690   -3.4120    0.8740 C   0  0  0  0  0  0  0  0  0  0  0  0
    6.3020   -2.8850   -0.5640 C   0  0  0  0  0  0  0  0  0  0  0  0
    4.8810   -2.6440   -1.1130 C   0  0  0  0  0  0  0  0  0  0  0  0
    5.3900    0.2320    0.0980 N   0  0  0  0  0  0  0  0  0  0  0  0
    5.9600    1.5030   -0.0210 C   0  0  0  0  0  0  0  0  0  0  0  0
    7.1470    1.7970    0.6390 C   0  0  0  0  0  0  0  0  0  0  0  0
    7.7080    3.0530    0.5200 C   0  0  0  0  0  0  0  0  0  0  0  0
    7.0900    4.0170   -0.2550 C   0  0  0  0  0  0  0  0  0  0  0  0
    5.9090    3.7280   -0.9130 C   0  0  0  0  0  0  0  0  0  0  0  0
    5.3450    2.4720   -0.8030 C   0  0  0  0  0  0  0  0  0  0  0  0
  1  7  1  0
  2  3  1  0
  2  1  2  0
  3  5  2  0
  4 23  1  0
  5 21  1  0
  6 20  1  0
  7 21  2  0
  8 14  1  0
  8  9  1  0
  9 10  1  0
 10 12  1  0
 10 11  1  0
 13 12  1  0
 14 13  1  0
 15 16  1  0
 15 14  1  0
 17 16  2  0
 18 15  2  0
 19 20  2  0
 19 18  1  0
 20 17  1  0
 21  6  1  0
 22  4  2  0
 22  2  1  0
 23 24  1  0
 23  1  1  0
 24 28  1  0
 24 25  1  0
 25 26  1  0
 27 26  1  0
 28 27  1  0
 29  4  1  0
 30 29  1  0
 31 30  2  0
 32 31  1  0
 33 34  1  0
 33 32  2  0
 34 35  2  0
 35 30  1  0
M  END
$$$$
