@<TRIPOS>MOLECULE
7XR
35 40 0 0 0
SMALL
NO_CHARGES

@<TRIPOS>ATOM
     1 C4         -52.4950    -0.1930   -21.7200 C.ar     1 LIG 0.0000
     2 C5         -53.3260     0.4760   -22.5790 C.ar     1 LIG 0.0000
     3 C6         -54.2490     1.3520   -22.0770 C.ar     1 LIG 0.0000
     4 C8         -52.0670    -0.7660   -23.7350 C.ar     1 LIG 0.0000
     5 N1         -54.3130     1.5240   -20.7900 N.ar     1 LIG 0.0000
     6 N2         -53.6510     1.1150   -18.6960 N.ar     1 LIG 0.0000
     7 N3         -52.5990     0.0090   -20.4100 N.ar     1 LIG 0.0000
     8 CAR        -49.0880    -1.2950   -14.9700 C.ar     1 LIG 0.0000
     9 CAP        -49.0380    -2.4200   -13.9550 C.ar     1 LIG 0.0000
    10 NBG        -49.2230    -1.8590   -12.6210 N.ar     1 LIG 0.0000
    11 CAA        -49.0350    -2.9170   -11.6320 C.ar     1 LIG 0.0000
    12 CAQ        -50.5810    -1.3510   -12.5030 C.ar     1 LIG 0.0000
    13 CAS        -50.7090    -0.1370   -13.3960 C.ar     1 LIG 0.0000
    14 NBH        -50.3040    -0.5100   -14.7470 N.ar     1 LIG 0.0000
    15 CBA        -51.1190    -0.1230   -15.7900 C.ar     1 LIG 0.0000
    16 CAJ        -52.1670     0.7120   -15.4880 C.ar     1 LIG 0.0000
    17 CAH        -53.0110     1.1220   -16.4920 C.ar     1 LIG 0.0000
    18 CAI        -50.9090    -0.5540   -17.0870 C.ar     1 LIG 0.0000
    19 CAG        -51.7620    -0.1390   -18.0960 C.ar     1 LIG 0.0000
    20 CAZ        -52.8100     0.6970   -17.7850 C.ar     1 LIG 0.0000
    21 C2         -53.5080     0.8710   -19.9690 C.ar     1 LIG 0.0000
    22 N7         -53.0410     0.1080   -23.8120 N.ar     1 LIG 0.0000
    23 N9         -51.7400    -0.9560   -22.4790 N.ar     1 LIG 0.0000
    24 CBF        -50.6880    -1.8380   -22.0060 C.ar     1 LIG 0.0000
    25 CAN        -51.2340    -2.8350   -21.0090 C.ar     1 LIG 0.0000
    26 CAL        -50.0750    -3.1070   -20.0560 C.ar     1 LIG 0.0000
    27 CAM        -49.0080    -2.0740   -20.3930 C.ar     1 LIG 0.0000
    28 CAO        -49.7660    -1.0070   -21.1460 C.ar     1 LIG 0.0000
    29 NAX        -51.5440    -1.3380   -24.7950 N.ar     1 LIG 0.0000
    30 CAY        -51.9270    -0.8730   -25.9710 C.ar     1 LIG 0.0000
    31 CAE        -52.1280     0.4820   -26.1240 C.ar     1 LIG 0.0000
    32 CAC        -52.5310     0.9980   -27.3420 C.ar     1 LIG 0.0000
    33 CAB        -52.7390     0.1500   -28.4090 C.ar     1 LIG 0.0000
    34 CAD        -52.5450    -1.2080   -28.2520 C.ar     1 LIG 0.0000
    35 CAF        -52.1370    -1.7230   -27.0350 C.ar     1 LIG 0.0000
@<TRIPOS>BOND
     1   33   34 2
     2   33   32 1
     3   34   35 1
     4   32   31 2
     5   35   30 2
     6   31   30 1
     7   30   29 1
     8   29    4 1
     9   22    4 2
    10   22    2 1
    11    4   23 1
    12    2    3 2
    13    2    1 1
    14   23   24 1
    15   23    1 1
    16    3    5 1
    17   24   28 1
    18   24   25 1
    19    1    7 2
    20   28   27 1
    21   25   26 1
    22    5   21 2
    23    7   21 1
    24   27   26 1
    25   21    6 1
    26    6   20 1
    27   19   20 2
    28   19   18 1
    29   20   17 1
    30   18   15 2
    31   17   16 2
    32   15   16 1
    33   15   14 1
    34    8   14 1
    35    8    9 1
    36   14   13 1
    37    9   10 1
    38   13   12 1
    39   10   12 1
    40   10   11 1
