@<TRIPOS>MOLECULE
6GY
 79 83 0 0 0
SMALL
GASTEIGER

@<TRIPOS>ATOM
      1 C           3.6340    2.0500    0.8590 C.ar    1  UNL1        0.0000
      2 C           4.1480    0.8110    0.4670 C.ar    1  UNL1        0.0000
      3 C           9.5670    0.2440   -2.2030 C.3     1  UNL1        0.0000
      4 C           2.0130   -0.0590    0.5040 C.ar    1  UNL1        0.0000
      5 C           2.2720    2.1640    1.0610 C.ar    1  UNL1        0.0000
      6 C          -0.7740    0.2850    0.1430 C.ar    1  UNL1        0.0000
      7 C          -2.1440    0.4570    0.1950 C.ar    1  UNL1        0.0000
      8 C          -2.9700   -0.6220    0.4810 C.ar    1  UNL1        0.0000
      9 C          -2.4210   -1.8750    0.7150 C.ar    1  UNL1        0.0000
     10 C          -1.0480   -2.0490    0.6630 C.ar    1  UNL1        0.0000
     11 O          -0.5090   -3.2760    0.8910 O.3     1  UNL1        0.0000
     12 C          -1.4170   -4.3410    1.1790 C.3     1  UNL1        0.0000
     13 C          -6.2250    1.1390    0.4670 C.3     1  UNL1        0.0000
     14 C         -10.3530    1.8390   -0.0650 C.3     1  UNL1        0.0000
     15 N           3.3130   -0.2100    0.3010 N.ar    1  UNL1        0.0000
     16 N           1.4970    1.1050    0.8710 N.ar    1  UNL1        0.0000
     17 N           1.1700   -1.1410    0.3170 N.pl3   1  UNL1        0.0000
     18 C          -0.2210   -0.9660    0.3760 C.ar    1  UNL1        0.0000
     19 N          -4.3570   -0.4450    0.5340 N.pl3   1  UNL1        0.0000
     20 C          -4.7210    0.9510    0.2580 C.3     1  UNL1        0.0000
     21 C          -6.9870    0.1980   -0.4710 C.3     1  UNL1        0.0000
     22 C          -6.5550   -1.2450   -0.1960 C.3     1  UNL1        0.0000
     23 C          -5.0410   -1.3630   -0.3850 C.3     1  UNL1        0.0000
     24 N          -8.4310    0.3330   -0.2350 N.3     1  UNL1        0.0000
     25 C          -9.1940   -0.5580   -1.1200 C.3     1  UNL1        0.0000
     26 C         -10.6840   -0.4470   -0.7890 C.3     1  UNL1        0.0000
     27 N         -11.1170    0.9490   -0.9500 N.3     1  UNL1        0.0000
     28 C          -8.8630    1.7280   -0.3970 C.3     1  UNL1        0.0000
     29 C         -12.5600    1.0830   -0.7140 C.3     1  UNL1        0.0000
     30 N           5.5090    0.6490    0.2520 N.pl3   1  UNL1        0.0000
     31 C           6.0300   -0.6230   -0.0000 C.ar    1  UNL1        0.0000
     32 C           7.2750   -0.7580   -0.6020 C.ar    1  UNL1        0.0000
     33 C           7.7870   -2.0160   -0.8500 C.ar    1  UNL1        0.0000
     34 C           7.0620   -3.1410   -0.5010 C.ar    1  UNL1        0.0000
     35 C           5.8230   -3.0100    0.0980 C.ar    1  UNL1        0.0000
     36 C           5.3070   -1.7550    0.3540 C.ar    1  UNL1        0.0000
     37 P           8.2260    0.7170   -1.0610 P.3     1  UNL1        0.0000
     38 C           8.9420    1.4690    0.4370 C.3     1  UNL1        0.0000
     39 O           7.3340    1.6930   -1.7250 O.2     1  UNL1        0.0000
     40 *           4.6840    3.4120    1.0960 Du      1  UNL1        0.0000
     41 H           9.1390   -0.2060   -3.0990 H       1  UNL1        0.0000
     42 H          10.1390    1.1300   -2.4790 H       1  UNL1        0.0000
     43 H          10.2240   -0.4750   -1.7130 H       1  UNL1        0.0000
     44 H           1.8430    3.1060    1.3690 H       1  UNL1        0.0000
     45 H          -0.1320    1.1240   -0.0840 H       1  UNL1        0.0000
     46 H          -2.5720    1.4320    0.0140 H       1  UNL1        0.0000
     47 H          -3.0640   -2.7140    0.9380 H       1  UNL1        0.0000
     48 H          -2.1000   -4.4730    0.3400 H       1  UNL1        0.0000
     49 H          -0.8570   -5.2630    1.3400 H       1  UNL1        0.0000
     50 H          -1.9870   -4.1000    2.0770 H       1  UNL1        0.0000
     51 H          -6.4810    0.9070    1.5010 H       1  UNL1        0.0000
     52 H          -6.4970    2.1710    0.2470 H       1  UNL1        0.0000
     53 H         -10.6820    2.8680   -0.2130 H       1  UNL1        0.0000
     54 H         -10.5170    1.5500    0.9720 H       1  UNL1        0.0000
     55 H           1.5410   -2.0210    0.1440 H       1  UNL1        0.0000
     56 H          -4.4640    1.1960   -0.7730 H       1  UNL1        0.0000
     57 H          -4.1750    1.6090    0.9340 H       1  UNL1        0.0000
     58 H          -6.7620    0.4540   -1.5060 H       1  UNL1        0.0000
     59 H          -6.8150   -1.5140    0.8280 H       1  UNL1        0.0000
     60 H          -7.0620   -1.9160   -0.8890 H       1  UNL1        0.0000
     61 H          -4.7820   -1.1080   -1.4130 H       1  UNL1        0.0000
     62 H          -4.7270   -2.3860   -0.1760 H       1  UNL1        0.0000
     63 H          -9.0300   -0.2680   -2.1580 H       1  UNL1        0.0000
     64 H          -8.8650   -1.5870   -0.9730 H       1  UNL1        0.0000
     65 H         -11.2550   -1.0850   -1.4630 H       1  UNL1        0.0000
     66 H         -10.8530   -0.7630    0.2410 H       1  UNL1        0.0000
     67 H          -8.6940    2.0440   -1.4260 H       1  UNL1        0.0000
     68 H          -8.2920    2.3660    0.2780 H       1  UNL1        0.0000
     69 H         -12.8650    2.1120   -0.9060 H       1  UNL1        0.0000
     70 H         -13.1020    0.4130   -1.3820 H       1  UNL1        0.0000
     71 H         -12.7850    0.8250    0.3200 H       1  UNL1        0.0000
     72 H           6.0980    1.4190    0.2780 H       1  UNL1        0.0000
     73 H           8.7550   -2.1220   -1.3180 H       1  UNL1        0.0000
     74 H           7.4650   -4.1240   -0.6970 H       1  UNL1        0.0000
     75 H           5.2590   -3.8900    0.3690 H       1  UNL1        0.0000
     76 H           4.3390   -1.6530    0.8220 H       1  UNL1        0.0000
     77 H           9.5130    2.3560    0.1620 H       1  UNL1        0.0000
     78 H           8.1400    1.7520    1.1200 H       1  UNL1        0.0000
     79 H           9.5990    0.7510    0.9270 H       1  UNL1        0.0000
@<TRIPOS>BOND
     1     1     5   ar
     2     1    40    1
     3     2     1   ar
     4     3    37    1
     5     3    41    1
     6     3    42    1
     7     3    43    1
     8     4    16   ar
     9     5    44    1
    10     6    18   ar
    11     6    45    1
    12     7     6   ar
    13     7    46    1
    14     8     9   ar
    15     8     7   ar
    16     9    10   ar
    17     9    47    1
    18    10    11    1
    19    10    18   ar
    20    11    12    1
    21    12    48    1
    22    12    49    1
    23    12    50    1
    24    13    20    1
    25    13    51    1
    26    13    52    1
    27    14    28    1
    28    14    53    1
    29    14    54    1
    30    15     2   ar
    31    15     4   ar
    32    16     5   ar
    33    17     4    1
    34    17    55    1
    35    18    17    1
    36    19    20    1
    37    19     8    1
    38    20    56    1
    39    20    57    1
    40    21    13    1
    41    21    58    1
    42    22    21    1
    43    22    23    1
    44    22    59    1
    45    22    60    1
    46    23    19    1
    47    23    61    1
    48    23    62    1
    49    24    21    1
    50    25    24    1
    51    25    63    1
    52    25    64    1
    53    26    25    1
    54    26    65    1
    55    26    66    1
    56    27    14    1
    57    27    26    1
    58    28    24    1
    59    28    67    1
    60    28    68    1
    61    29    27    1
    62    29    69    1
    63    29    70    1
    64    29    71    1
    65    30     2    1
    66    30    72    1
    67    31    32   ar
    68    31    30    1
    69    32    37    1
    70    33    32   ar
    71    33    73    1
    72    34    33   ar
    73    34    74    1
    74    35    34   ar
    75    35    36   ar
    76    35    75    1
    77    36    31   ar
    78    36    76    1
    79    37    39    2
    80    37    38    1
    81    38    77    1
    82    38    78    1
    83    38    79    1
