@<TRIPOS>MOLECULE
V58
 76 81 0 0 0
SMALL
GASTEIGER

@<TRIPOS>ATOM
      1 C          -2.5280   -0.4710    0.0890 C.ar    1  UNL1        0.1035
      2 N          -0.2280   -0.0630   -0.1240 N.ar    1  UNL1       -0.2218
      3 C          -0.4180    1.1860    0.2860 C.ar    1  UNL1        0.2201
      4 C           1.9650    1.5300    0.1780 C.ar    1  UNL1        0.0759
      5 C           3.4940   -0.3170    0.1270 C.ar    1  UNL1       -0.0387
      6 C           5.8530   -1.4110   -0.2270 C.3     1  UNL1        0.0136
      7 C           7.2370   -1.9460   -0.6040 C.3     1  UNL1       -0.0215
      8 C           8.2980   -1.2500    0.2520 C.3     1  UNL1        0.0127
      9 C          10.6790   -1.0680    0.6570 C.3     1  UNL1       -0.0128
     10 C           8.2010    0.2630    0.0410 C.3     1  UNL1       -0.0215
     11 C           4.2710    1.8980   -0.3970 C.ar    1  UNL1        0.0029
     12 C          -3.6800   -1.3770   -0.0190 C.2     1  UNL1        0.3480
     13 C          -4.5850   -3.4820   -0.3010 C.ar    1  UNL1        0.1320
     14 C          -5.4770   -3.4610   -1.3650 C.ar    1  UNL1       -0.0192
     15 C          -6.5870   -4.2830   -1.3490 C.ar    1  UNL1       -0.0583
     16 C          -6.8100   -5.1260   -0.2760 C.ar    1  UNL1       -0.0615
     17 C          -5.9240   -5.1470    0.7850 C.ar    1  UNL1       -0.0583
     18 C          -4.8120   -4.3280    0.7740 C.ar    1  UNL1       -0.0192
     19 C          -1.2370   -0.9070   -0.2340 C.ar    1  UNL1        0.0473
     20 C           2.2200    0.1760    0.3350 C.ar    1  UNL1       -0.0351
     21 C           4.5220    0.5410   -0.2390 C.ar    1  UNL1        0.0333
     22 C           9.7290   -3.1790   -0.0520 C.3     1  UNL1       -0.0128
     23 C           6.7900    0.7340    0.3990 C.3     1  UNL1        0.0136
     24 C           2.9950    2.3940   -0.1890 C.ar    1  UNL1        0.1429
     25 C           3.8500    4.5480   -0.7210 C.3     1  UNL1        0.0789
     26 C          -2.6920    0.8680    0.5170 C.ar    1  UNL1        0.0920
     27 C          -4.0280    1.3870    0.8670 C.ar    1  UNL1        0.0263
     28 C          -4.6660    1.2530    2.0610 C.ar    1  UNL1        0.0120
     29 C          -6.0750    2.4260    0.7610 C.ar    1  UNL1        0.0471
     30 C          -4.9300    2.1580   -0.0070 C.ar    1  UNL1        0.0089
     31 C          -4.8470    2.6150   -1.3210 C.ar    1  UNL1       -0.0520
     32 C          -5.8930    3.3300   -1.8610 C.ar    1  UNL1       -0.0611
     33 C          -7.0250    3.5960   -1.1030 C.ar    1  UNL1       -0.0598
     34 C          -7.1200    3.1500    0.1970 C.ar    1  UNL1       -0.0378
     35 N           0.6700    2.0300    0.3840 N.pl3   1  UNL1       -0.2807
     36 N           5.8110    0.0400   -0.4480 N.pl3   1  UNL1       -0.3297
     37 N           9.6330   -1.7170   -0.1460 N.3     1  UNL1       -0.3053
     38 N          -1.6180    1.6500    0.5990 N.ar    1  UNL1       -0.2133
     39 N          -5.8790    1.8640    2.0050 N.ar    1  UNL1       -0.3600
     40 O          -4.8060   -0.9530    0.1600 O.2     1  UNL1       -0.2444
     41 O          -3.4900   -2.6780   -0.3170 O.3     1  UNL1       -0.4223
     42 O           2.7470    3.7220   -0.3430 O.3     1  UNL1       -0.4932
     43 H           3.6900   -1.3720    0.2510 H       1  UNL1        0.0637
     44 H           5.0960   -1.8950   -0.8450 H       1  UNL1        0.0464
     45 H           5.6550   -1.6250    0.8230 H       1  UNL1        0.0464
     46 H           7.2730   -3.0210   -0.4260 H       1  UNL1        0.0295
     47 H           7.4290   -1.7460   -1.6580 H       1  UNL1        0.0295
     48 H           8.1290   -1.4840    1.3030 H       1  UNL1        0.0463
     49 H          10.5260   -1.3030    1.7100 H       1  UNL1        0.0391
     50 H          11.6570   -1.4310    0.3410 H       1  UNL1        0.0391
     51 H          10.6290    0.0120    0.5140 H       1  UNL1        0.0391
     52 H           8.9260    0.7670    0.6800 H       1  UNL1        0.0295
     53 H           8.4100    0.4990   -1.0030 H       1  UNL1        0.0295
     54 H           5.0710    2.5660   -0.6820 H       1  UNL1        0.0673
     55 H          -5.3030   -2.8030   -2.2030 H       1  UNL1        0.0654
     56 H          -7.2810   -4.2670   -2.1760 H       1  UNL1        0.0619
     57 H          -7.6790   -5.7670   -0.2660 H       1  UNL1        0.0618
     58 H          -6.1010   -5.8060    1.6230 H       1  UNL1        0.0619
     59 H          -4.1190   -4.3450    1.6030 H       1  UNL1        0.0654
     60 H          -1.0690   -1.9200   -0.5680 H       1  UNL1        0.0840
     61 H           1.4220   -0.4940    0.6190 H       1  UNL1        0.0638
     62 H           8.9890   -3.6350   -0.7100 H       1  UNL1        0.0391
     63 H          10.7270   -3.4980   -0.3520 H       1  UNL1        0.0391
     64 H           9.5420   -3.4910    0.9750 H       1  UNL1        0.0391
     65 H           6.5870    0.5100    1.4460 H       1  UNL1        0.0464
     66 H           6.7130    1.8090    0.2360 H       1  UNL1        0.0464
     67 H           4.6300    4.4820    0.0380 H       1  UNL1        0.0660
     68 H           4.2460    4.2110   -1.6790 H       1  UNL1        0.0660
     69 H           3.5160    5.5820   -0.8100 H       1  UNL1        0.0660
     70 H          -4.2690    0.7380    2.9230 H       1  UNL1        0.0814
     71 H          -3.9670    2.4100   -1.9120 H       1  UNL1        0.0624
     72 H          -5.8320    3.6860   -2.8780 H       1  UNL1        0.0618
     73 H          -7.8390    4.1580   -1.5370 H       1  UNL1        0.0618
     74 H          -8.0060    3.3620    0.7770 H       1  UNL1        0.0638
     75 H           0.5400    2.9670    0.5950 H       1  UNL1        0.1551
     76 H          -6.5150    1.9010    2.7360 H       1  UNL1        0.1654
@<TRIPOS>BOND
     1     1    12    1
     2     2    19   ar
     3     3    38   ar
     4     3     2   ar
     5     4    24   ar
     6     5    21   ar
     7     5    43    1
     8     6    36    1
     9     6     7    1
    10     6    44    1
    11     6    45    1
    12     7    46    1
    13     7    47    1
    14     8     7    1
    15     8    37    1
    16     8    48    1
    17     9    37    1
    18     9    49    1
    19     9    50    1
    20     9    51    1
    21    10     8    1
    22    10    52    1
    23    10    53    1
    24    11    54    1
    25    12    41    1
    26    13    14   ar
    27    14    15   ar
    28    14    55    1
    29    15    56    1
    30    16    15   ar
    31    16    57    1
    32    17    16   ar
    33    17    58    1
    34    18    17   ar
    35    18    13   ar
    36    18    59    1
    37    19     1   ar
    38    19    60    1
    39    20     5   ar
    40    20     4   ar
    41    20    61    1
    42    21    36    1
    43    21    11   ar
    44    22    62    1
    45    22    63    1
    46    22    64    1
    47    23    10    1
    48    23    36    1
    49    23    65    1
    50    23    66    1
    51    24    11   ar
    52    24    42    1
    53    25    67    1
    54    25    68    1
    55    25    69    1
    56    26    27    1
    57    26     1   ar
    58    27    30   ar
    59    28    39   ar
    60    28    27   ar
    61    28    70    1
    62    29    30   ar
    63    29    34   ar
    64    30    31   ar
    65    31    32   ar
    66    31    71    1
    67    32    72    1
    68    33    32   ar
    69    33    73    1
    70    34    33   ar
    71    34    74    1
    72    35     4    1
    73    35     3    1
    74    35    75    1
    75    37    22    1
    76    38    26   ar
    77    39    29   ar
    78    39    76    1
    79    40    12    2
    80    41    13    1
    81    42    25    1
