@<TRIPOS>MOLECULE
80U
35 39 0 0 0
SMALL
NO_CHARGES

@<TRIPOS>ATOM
     1 C4          26.1190    12.8390    38.8090 C.ar     1 LIG 0.0000
     2 C5          27.2750    13.2070    39.3550 C.ar     1 LIG 0.0000
     3 C6          27.7390    14.4490    39.2150 C.ar     1 LIG 0.0000
     4 N1          27.0630    15.3740    38.5230 N.ar     1 LIG 0.0000
     5 N3          25.3870    13.7120    38.1020 N.ar     1 LIG 0.0000
     6 C2          25.8460    15.0210    37.9380 C.ar     1 LIG 0.0000
     7 CAA         34.6550    13.3190    43.0800 C.ar     1 LIG 0.0000
     8 CAH         35.5490    11.6950    39.9980 C.ar     1 LIG 0.0000
     9 CAJ         29.7650    11.0010    40.2890 C.ar     1 LIG 0.0000
    10 CAK         30.9300    10.8240    41.0280 C.ar     1 LIG 0.0000
    11 CAL         35.6450    12.7140    40.8530 C.ar     1 LIG 0.0000
    12 CAM         29.0630    12.7360    41.7990 C.ar     1 LIG 0.0000
    13 CAN         22.4890     9.9750    39.4700 C.ar     1 LIG 0.0000
    14 CAO         24.2150     6.9150    34.8690 C.ar     1 LIG 0.0000
    15 CAP         24.8050     7.5520    36.1300 C.ar     1 LIG 0.0000
    16 CAQ         23.7190    10.7810    39.8360 C.ar     1 LIG 0.0000
    17 CAR         22.8990     8.5350    39.2880 C.ar     1 LIG 0.0000
    18 CAS         33.2970    10.5960    42.5990 C.ar     1 LIG 0.0000
    19 CAU         25.1250     9.3270    38.3410 C.ar     1 LIG 0.0000
    20 CBB         23.7240     7.6040    37.2140 C.ar     1 LIG 0.0000
    21 CBD         30.2280    12.5630    42.5410 C.ar     1 LIG 0.0000
    22 CBE         28.8330    11.9620    40.6650 C.ar     1 LIG 0.0000
    23 CBF         31.1610    11.6090    42.1580 C.ar     1 LIG 0.0000
    24 CBG         34.2880    11.2860    41.6620 C.ar     1 LIG 0.0000
    25 CBH         27.7120    12.1120    39.9600 C.ar     1 LIG 0.0000
    26 CBL         24.7420    10.7620    38.7040 C.ar     1 LIG 0.0000
    27 NAB         28.9030    14.7240    39.7950 N.ar     1 LIG 0.0000
    28 NAW         34.7020    10.8000    40.4990 N.ar     1 LIG 0.0000
    29 NAY         26.8280    11.1380    39.7740 N.ar     1 LIG 0.0000
    30 NBM         23.9270     8.4540    38.2360 N.ar     1 LIG 0.0000
    31 NBN         34.8560    12.4600    41.8940 N.ar     1 LIG 0.0000
    32 NBO         25.9220    11.5540    39.1100 N.ar     1 LIG 0.0000
    33 OAE         22.7280     6.8890    37.1280 O.2      1 LIG 0.0000
    34 OAZ         32.2670    11.5280    42.9670 O.2      1 LIG 0.0000
    35 CLA         30.5310    13.5260    43.9450 CL       1 LIG 0.0000
@<TRIPOS>BOND
     1   14   15 2
     2   15   20 1
     3   33   20 2
     4   20   30 1
     5    6    5 2
     6    6    4 1
     7    5    1 1
     8   30   19 1
     9   30   17 1
    10   19   26 1
    11    4    3 2
    12   26   32 1
    13   26   16 1
    14    1   32 1
    15    1    2 2
    16   32   29 1
    17    3    2 1
    18    3   27 1
    19   17   13 1
    20    2   25 1
    21   13   16 1
    22   29   25 2
    23   25   22 1
    24    8   28 1
    25    8   11 2
    26    9   22 2
    27    9   10 1
    28   28   24 2
    29   22   12 1
    30   11   31 1
    31   10   23 2
    32   24   31 1
    33   24   18 1
    34   12   21 2
    35   31    7 1
    36   23   21 1
    37   23   34 1
    38   21   35 1
    39   18   34 1
