@<TRIPOS>MOLECULE
816
36 40 0 0 0
SMALL
NO_CHARGES

@<TRIPOS>ATOM
     1 C4         -37.2840    18.5910   -61.3840 C.ar     1 LIG 0.0000
     2 C5         -36.3240    18.0560   -62.1030 C.ar     1 LIG 0.0000
     3 C6         -36.5300    17.7450   -63.3740 C.ar     1 LIG 0.0000
     4 N1         -37.7050    17.9480   -63.9650 N.ar     1 LIG 0.0000
     5 N3         -38.4820    18.8240   -61.9190 N.ar     1 LIG 0.0000
     6 C2         -38.7340    18.5030   -63.2410 C.ar     1 LIG 0.0000
     7 CAA        -30.8950    11.9380   -63.5030 C.ar     1 LIG 0.0000
     8 CAH        -29.4850    12.1330   -60.1420 C.ar     1 LIG 0.0000
     9 CAJ        -30.0060    11.5950   -61.3070 C.ar     1 LIG 0.0000
    10 CAK        -29.3490    13.5080   -60.0310 C.ar     1 LIG 0.0000
    11 CAL        -33.4740    16.7040   -60.5290 C.ar     1 LIG 0.0000
    12 CAM        -32.1760    16.2450   -60.7250 C.ar     1 LIG 0.0000
    13 CAN        -33.3800    17.9140   -62.5920 C.ar     1 LIG 0.0000
    14 CAO        -36.7480    21.6840   -59.4410 C.ar     1 LIG 0.0000
    15 CAP        -39.0580    19.1550   -56.3350 C.ar     1 LIG 0.0000
    16 CAQ        -37.9890    19.7280   -55.4210 C.ar     1 LIG 0.0000
    17 CAR        -37.9740    20.7930   -59.4270 C.ar     1 LIG 0.0000
    18 CAS        -36.2500    21.8200   -58.0310 C.ar     1 LIG 0.0000
    19 CAT        -29.6140    15.6840   -61.0000 C.ar     1 LIG 0.0000
    20 CAV        -36.8010    19.3770   -57.8110 C.ar     1 LIG 0.0000
    21 CBC        -37.4140    20.9600   -56.0810 C.ar     1 LIG 0.0000
    22 CBD        -30.3740    12.4500   -62.3310 C.ar     1 LIG 0.0000
    23 CBF        -32.0920    17.4550   -62.7860 C.ar     1 LIG 0.0000
    24 CBG        -29.7340    14.3160   -61.0840 C.ar     1 LIG 0.0000
    25 CBH        -34.0840    17.5270   -61.4630 C.ar     1 LIG 0.0000
    26 CBI        -31.4950    16.6340   -61.8640 C.ar     1 LIG 0.0000
    27 CBJ        -35.3170    17.9750   -61.2500 C.ar     1 LIG 0.0000
    28 CBN        -37.5790    19.3700   -59.0920 C.ar     1 LIG 0.0000
    29 NAB        -35.5100    17.2170   -64.0310 N.ar     1 LIG 0.0000
    30 NAY        -30.2290    13.7720   -62.1970 N.ar     1 LIG 0.0000
    31 NAZ        -35.7210    18.4650   -60.0880 N.ar     1 LIG 0.0000
    32 NBO        -36.8280    20.7280   -57.2510 N.ar     1 LIG 0.0000
    33 NBP        -36.7960    18.7960   -60.1670 N.ar     1 LIG 0.0000
    34 OAE        -37.4980    22.0630   -55.5500 O.2      1 LIG 0.0000
    35 OBA        -30.2320    16.2440   -62.1490 O.2      1 LIG 0.0000
    36 CLA        -31.2670    17.8750   -64.0750 CL       1 LIG 0.0000
@<TRIPOS>BOND
     1   36   23 1
     2   29    3 1
     3    4    3 2
     4    4    6 1
     5    7   22 1
     6    3    2 1
     7    6    5 2
     8   23   13 2
     9   23   26 1
    10   13   25 1
    11   22   30 2
    12   22    9 1
    13   30   24 1
    14   35   26 1
    15   35   19 1
    16    2    1 2
    17    2   27 1
    18    5    1 1
    19   26   12 2
    20   25   27 1
    21   25   11 2
    22    1   33 1
    23    9    8 2
    24   27   31 2
    25   24   19 1
    26   24   10 2
    27   12   11 1
    28   33   31 1
    29   33   28 1
    30    8   10 1
    31   14   17 1
    32   14   18 1
    33   17   28 1
    34   28   20 1
    35   18   32 1
    36   20   32 1
    37   32   21 1
    38   15   16 2
    39   21   34 2
    40   21   16 1
