@<TRIPOS>MOLECULE
8AM
32 35 0 0 0
SMALL
NO_CHARGES

@<TRIPOS>ATOM
     1 C5         -15.0440    16.7680   -25.7180 C.ar     1 LIG 0.0000
     2 C6         -13.2890    15.8880   -27.2500 C.ar     1 LIG 0.0000
     3 C8         -13.3590    13.5360   -27.7500 C.ar     1 LIG 0.0000
     4 C10        -11.6770    15.0110   -28.5970 C.ar     1 LIG 0.0000
     5 N12        -10.5720    14.9370   -29.4010 N.ar     1 LIG 0.0000
     6 C13        -10.4560    13.6120   -29.7740 C.ar     1 LIG 0.0000
     7 C15         -9.7210    16.0850   -29.7610 C.ar     1 LIG 0.0000
     8 C17         -8.2790    15.6920   -30.1110 C.ar     1 LIG 0.0000
     9 C20        -15.8450    12.6960   -25.9520 C.ar     1 LIG 0.0000
    10 C26        -17.9760    12.2420   -24.7060 C.ar     1 LIG 0.0000
    11 C1         -15.2550    18.1770   -25.1370 C.ar     1 LIG 0.0000
    12 C2         -14.5940    19.0800   -26.1560 C.ar     1 LIG 0.0000
    13 C3         -13.3650    18.2850   -26.5900 C.ar     1 LIG 0.0000
    14 N4         -13.8670    16.9260   -26.5650 N.ar     1 LIG 0.0000
    15 N7         -13.8630    14.6600   -27.1340 N.ar     1 LIG 0.0000
    16 C9         -12.1850    13.7140   -28.5270 C.ar     1 LIG 0.0000
    17 N11        -12.1750    16.1180   -27.9940 N.ar     1 LIG 0.0000
    18 N14        -11.4110    12.8560   -29.2660 N.ar     1 LIG 0.0000
    19 C16        -10.3250    16.8580   -30.9410 C.ar     1 LIG 0.0000
    20 N18        -13.9980    12.2920   -27.6130 N.ar     1 LIG 0.0000
    21 C19        -15.1540    12.0070   -26.9390 C.ar     1 LIG 0.0000
    22 N21        -16.9450    11.9390   -25.6690 N.ar     1 LIG 0.0000
    23 N22        -17.0260    10.8090   -26.3960 N.ar     1 LIG 0.0000
    24 C23        -15.9280    10.8610   -27.1680 C.ar     1 LIG 0.0000
    25 O24        -15.6010     9.9010   -28.0860 O.2      1 LIG 0.0000
    26 C25        -16.5000     8.7950   -28.2060 C.ar     1 LIG 0.0000
    27 F27        -15.4450    19.2290   -27.2150 F        1 LIG 0.0000
    28 N28        -14.5520    18.3230   -23.8540 N.ar     1 LIG 0.0000
    29 C29        -15.0070    17.8060   -22.6520 C.ar     1 LIG 0.0000
    30 C30        -14.0370    18.1460   -21.5240 C.ar     1 LIG 0.0000
    31 C31        -14.3590    17.4680   -20.2000 C.ar     1 LIG 0.0000
    32 O32        -16.0440    17.1650   -22.5060 O.2      1 LIG 0.0000
@<TRIPOS>BOND
     1   19    7 1
     2    8    7 1
     3    6    5 1
     4    6   18 2
     5    7    5 1
     6    5    4 1
     7   18   16 1
     8    4   16 2
     9    4   17 1
    10   16    3 1
    11   26   25 1
    12   25   24 1
    13   17    2 2
    14    3   20 1
    15    3   15 2
    16   20   21 1
    17    2   15 1
    18    2   14 1
    19   27   12 1
    20   24   21 1
    21   24   23 2
    22   21    9 2
    23   13   14 1
    24   13   12 1
    25   14    1 1
    26   23   22 1
    27   12   11 1
    28    9   22 1
    29    1   11 1
    30   22   10 1
    31   11   28 1
    32   28   29 1
    33   29   32 2
    34   29   30 1
    35   30   31 1
