@<TRIPOS>MOLECULE
8BM
35 39 0 0 0
SMALL
NO_CHARGES

@<TRIPOS>ATOM
     1 C5           4.4040   -50.8020   -20.3420 C.ar     1 LIG 0.0000
     2 C6           2.9740   -50.8360   -19.8530 C.ar     1 LIG 0.0000
     3 C7           2.1920   -50.0450   -20.9230 C.ar     1 LIG 0.0000
     4 C8           3.1810   -48.9740   -21.3360 C.ar     1 LIG 0.0000
     5 C10          0.8920   -51.8940   -22.0200 C.ar     1 LIG 0.0000
     6 C15         -1.5350   -53.3390   -16.9540 C.ar     1 LIG 0.0000
     7 C17         -0.3280   -51.7770   -15.4540 C.ar     1 LIG 0.0000
     8 C21         -0.5860   -49.9570   -13.8780 C.ar     1 LIG 0.0000
     9 C22         -0.5040   -49.7120   -12.3630 C.ar     1 LIG 0.0000
    10 C24          1.0780   -49.6710   -10.4220 C.ar     1 LIG 0.0000
    11 C26          1.3520   -51.4820   -13.7460 C.ar     1 LIG 0.0000
    12 C1           6.9730   -49.3430   -20.7720 C.ar     1 LIG 0.0000
    13 C2           5.6470   -48.7280   -21.1930 C.ar     1 LIG 0.0000
    14 O3           5.6220   -47.6030   -21.7150 O.2      1 LIG 0.0000
    15 N4           4.4960   -49.4830   -20.9610 N.ar     1 LIG 0.0000
    16 N9           1.8350   -50.8560   -22.1060 N.ar     1 LIG 0.0000
    17 N11          0.3130   -52.1380   -20.8140 N.ar     1 LIG 0.0000
    18 C12         -0.6070   -53.1200   -20.6040 C.ar     1 LIG 0.0000
    19 N13         -1.1910   -53.3460   -19.3530 N.ar     1 LIG 0.0000
    20 C14         -0.8820   -52.7940   -18.0910 C.ar     1 LIG 0.0000
    21 C16         -1.2620   -52.8390   -15.6620 C.ar     1 LIG 0.0000
    22 C18          0.3240   -51.2270   -16.6030 C.ar     1 LIG 0.0000
    23 C19          0.0480   -51.7270   -17.8800 C.ar     1 LIG 0.0000
    24 N20         -0.0860   -51.3290   -14.1340 N.ar     1 LIG 0.0000
    25 N23          0.9480   -49.8950   -11.8990 N.ar     1 LIG 0.0000
    26 C25          1.4880   -51.2760   -12.2460 C.ar     1 LIG 0.0000
    27 C27         -0.9600   -53.9110   -21.7100 C.ar     1 LIG 0.0000
    28 N28         -1.8270   -54.9470   -21.8220 N.ar     1 LIG 0.0000
    29 C29         -1.7570   -55.2930   -23.0900 C.ar     1 LIG 0.0000
    30 N30         -0.8820   -54.5290   -23.8190 N.ar     1 LIG 0.0000
    31 C31         -0.6680   -54.7400   -25.2630 C.ar     1 LIG 0.0000
    32 C32          0.3420   -55.8270   -25.5630 C.ar     1 LIG 0.0000
    33 C33         -0.2720   -53.4720   -26.0440 C.ar     1 LIG 0.0000
    34 C34         -0.3350   -53.6110   -22.9290 C.ar     1 LIG 0.0000
    35 N35          0.5910   -52.6230   -23.1440 N.ar     1 LIG 0.0000
@<TRIPOS>BOND
     1   33   31 1
     2   32   31 1
     3   31   30 1
     4   30   29 1
     5   30   34 1
     6   35   34 2
     7   35    5 1
     8   29   28 2
     9   34   27 1
    10   16    5 1
    11   16    3 1
    12    5   17 2
    13   28   27 1
    14   14   13 2
    15   27   18 2
    16    4   15 1
    17    4    3 1
    18   13   15 1
    19   13   12 1
    20   15    1 1
    21    3    2 1
    22   17   18 1
    23   18   19 1
    24    1    2 1
    25   19   20 1
    26   20   23 2
    27   20    6 1
    28   23   22 1
    29    6   21 2
    30   22    7 2
    31   21    7 1
    32    7   24 1
    33   24    8 1
    34   24   11 1
    35    8    9 1
    36   11   26 1
    37    9   25 1
    38   26   25 1
    39   25   10 1
