8BM
     RDKit          3D

 35 39  0  0  1  0  0  0  0  0999 V2000
    1.2910   -3.8090    1.2420 C   0  0  0  0  0  0  0  0  0  0  0  0
   -0.1020   -3.4120    1.7900 C   0  0  0  0  0  0  0  0  0  0  0  0
   -0.4830   -2.2380    0.8500 C   0  0  1  0  0  0  0  0  0  0  0  0
    0.1170   -2.6710   -0.5040 C   0  0  0  0  0  0  0  0  0  0  0  0
   -2.4990   -0.8770    0.4280 C   0  0  0  0  0  0  0  0  0  0  0  0
    0.5040    1.4570    0.8780 C   0  0  0  0  0  0  0  0  0  0  0  0
    2.7600    2.0140    0.2840 C   0  0  0  0  0  0  0  0  0  0  0  0
    4.8990    2.6910   -0.4620 C   0  0  0  0  0  0  0  0  0  0  0  0
    6.3930    2.5780   -0.1470 C   0  0  0  0  0  0  0  0  0  0  0  0
    8.2450    1.0260    0.0080 C   0  0  0  0  0  0  0  0  0  0  0  0
    4.5440    0.4680    0.4280 C   0  0  0  0  0  0  0  0  0  0  0  0
    3.0040   -5.2450   -0.7020 C   0  0  0  0  0  0  0  0  0  0  0  0
    1.9410   -4.2700   -1.1390 C   0  0  0  0  0  0  0  0  0  0  0  0
    1.7650   -4.0530   -2.3190 O   0  0  0  0  0  0  0  0  0  0  0  0
    1.1840   -3.6410   -0.2180 N   0  0  0  0  0  0  0  0  0  0  0  0
   -1.9390   -2.1010    0.7560 N   0  0  0  0  0  0  0  0  0  0  0  0
   -1.6970    0.1560    0.2040 N   0  0  0  0  0  0  0  0  0  0  0  0
   -2.1870    1.3490   -0.1140 C   0  0  0  0  0  0  0  0  0  0  0  0
   -1.3420    2.4210   -0.3460 N   0  0  0  0  0  0  0  0  0  0  0  0
    0.0350    2.2860   -0.1330 C   0  0  0  0  0  0  0  0  0  0  0  0
    1.8620    1.3240    1.0880 C   0  0  0  0  0  0  0  0  0  0  0  0
    2.2910    2.8460   -0.7250 C   0  0  0  0  0  0  0  0  0  0  0  0
    0.9330    2.9800   -0.9340 C   0  0  0  0  0  0  0  0  0  0  0  0
    4.1360    1.8780    0.4960 N   0  0  0  0  0  0  0  0  0  0  0  0
    6.8000    1.1680   -0.2150 N   0  0  0  0  0  0  0  0  0  0  0  0
    6.0370    0.3550    0.7430 C   0  0  0  0  0  0  0  0  0  0  0  0
   -3.5810    1.5000   -0.2090 C   0  0  0  0  0  0  0  0  0  0  0  0
   -4.4080    2.5340   -0.5010 N   0  0  0  0  0  0  0  0  0  0  0  0
   -5.6430    2.1280   -0.4510 C   0  0  0  0  0  0  0  0  0  0  0  0
   -5.6850    0.8040   -0.1230 N   0  0  0  0  0  0  0  0  0  0  0  0
   -6.8910   -0.0130    0.0300 C   0  0  0  0  0  0  0  0  0  0  0  0
   -7.7700    0.5760    1.1360 C   0  0  0  0  0  0  0  0  0  0  0  0
   -7.6700   -0.0260   -1.2870 C   0  0  0  0  0  0  0  0  0  0  0  0
   -4.3910    0.3790    0.0360 C   0  0  0  0  0  0  0  0  0  0  0  0
   -3.8160   -0.7800    0.3440 N   0  0  0  0  0  0  0  0  0  0  0  0
  1  2  1  0
  3  2  1  0
  4 15  1  0
  4  3  1  0
  5 17  2  0
  6 21  2  0
  7 24  1  0
  8  9  1  0
  9 25  1  0
 11 26  1  0
 13 15  1  0
 13 12  1  0
 14 13  2  0
 15  1  1  0
 16  5  1  0
  3 16  1  6
 17 18  1  0
 18 19  1  0
 19 20  1  0
 20 23  2  0
 20  6  1  0
 21  7  1  0
 22  7  2  0
 23 22  1  0
 24  8  1  0
 24 11  1  0
 25 10  1  0
 26 25  1  0
 27 18  2  0
 28 27  1  0
 29 28  2  0
 30 29  1  0
 30 34  1  0
 31 30  1  0
 32 31  1  0
 33 31  1  0
 34 27  1  0
 35 34  2  0
 35  5  1  0
M  END
$$$$
