8BM
  CCTOOLS-0919241032

 70 74  0  0  1  0  0  0  0  0999 V2000
    1.2910   -3.8090    1.2420 C   0  0  0  0  0
   -0.1020   -3.4120    1.7900 C   0  0  0  0  0
   -0.4830   -2.2380    0.8500 C   0  0  0  0  0
    0.1170   -2.6710   -0.5040 C   0  0  0  0  0
   -2.4990   -0.8770    0.4280 C   0  0  0  0  0
    0.5040    1.4570    0.8780 C   0  0  0  0  0
    2.7600    2.0140    0.2840 C   0  0  0  0  0
    4.8990    2.6910   -0.4620 C   0  0  0  0  0
    6.3930    2.5780   -0.1470 C   0  0  0  0  0
    8.2450    1.0260    0.0080 C   0  0  0  0  0
    4.5440    0.4680    0.4280 C   0  0  0  0  0
    3.0040   -5.2450   -0.7020 C   0  0  0  0  0
    1.9410   -4.2700   -1.1390 C   0  0  0  0  0
    1.7650   -4.0530   -2.3190 O   0  0  0  0  0
    1.1840   -3.6410   -0.2180 N   0  0  0  0  0
   -1.9390   -2.1010    0.7560 N   0  0  0  0  0
   -1.6970    0.1560    0.2040 N   0  0  0  0  0
   -2.1870    1.3490   -0.1140 C   0  0  0  0  0
   -1.3420    2.4210   -0.3460 N   0  0  0  0  0
    0.0350    2.2860   -0.1330 C   0  0  0  0  0
    1.8620    1.3240    1.0880 C   0  0  0  0  0
    2.2910    2.8460   -0.7250 C   0  0  0  0  0
    0.9330    2.9800   -0.9340 C   0  0  0  0  0
    4.1360    1.8780    0.4960 N   0  0  0  0  0
    6.8000    1.1680   -0.2150 N   0  0  0  0  0
    6.0370    0.3550    0.7430 C   0  0  0  0  0
   -3.5810    1.5000   -0.2090 C   0  0  0  0  0
   -4.4080    2.5340   -0.5010 N   0  0  0  0  0
   -5.6430    2.1280   -0.4510 C   0  0  0  0  0
   -5.6850    0.8040   -0.1230 N   0  0  0  0  0
   -6.8910   -0.0130    0.0300 C   0  0  0  0  0
   -7.7700    0.5760    1.1360 C   0  0  0  0  0
   -7.6700   -0.0260   -1.2870 C   0  0  0  0  0
   -4.3910    0.3790    0.0360 C   0  0  0  0  0
   -3.8160   -0.7800    0.3440 N   0  0  0  0  0
    2.0600   -3.1500    1.6450 H   0  0  0  0  0
    1.5150   -4.8470    1.4910 H   0  0  0  0  0
   -0.8100   -4.2350    1.6930 H   0  0  0  0  0
   -0.0340   -3.0770    2.8250 H   0  0  0  0  0
   -0.0310   -1.3070    1.1920 H   0  0  0  0  0
   -0.6530   -3.1370   -1.1190 H   0  0  0  0  0
    0.5320   -1.8040   -1.0200 H   0  0  0  0  0
   -0.1940    0.9210    1.5040 H   0  0  0  0  0
    4.5890    3.7330   -0.3830 H   0  0  0  0  0
    4.7130    2.3310   -1.4740 H   0  0  0  0  0
    6.9630    3.1570   -0.8730 H   0  0  0  0  0
    6.5830    2.9630    0.8550 H   0  0  0  0  0
    8.5010    1.4160    0.9930 H   0  0  0  0  0
    8.5200   -0.0280   -0.0480 H   0  0  0  0  0
    8.7870    1.5830   -0.7560 H   0  0  0  0  0
    3.9740   -0.1110    1.1550 H   0  0  0  0  0
    4.3530    0.0820   -0.5740 H   0  0  0  0  0
    2.5760   -6.2450   -0.6360 H   0  0  0  0  0
    3.8170   -5.2450   -1.4280 H   0  0  0  0  0
    3.3890   -4.9490    0.2740 H   0  0  0  0  0
   -2.5100   -2.8670    0.9230 H   0  0  0  0  0
   -1.7040    3.2660   -0.6560 H   0  0  0  0  0
    2.2260    0.6830    1.8780 H   0  0  0  0  0
    2.9890    3.3890   -1.3450 H   0  0  0  0  0
    0.5690    3.6240   -1.7200 H   0  0  0  0  0
    6.2230    0.7150    1.7550 H   0  0  0  0  0
    6.3480   -0.6870    0.6650 H   0  0  0  0  0
   -6.5070    2.7470   -0.6410 H   0  0  0  0  0
   -6.6090   -1.0320    0.2950 H   0  0  0  0  0
   -8.0520    1.5950    0.8710 H   0  0  0  0  0
   -8.6670   -0.0320    1.2500 H   0  0  0  0  0
   -7.2150    0.5850    2.0740 H   0  0  0  0  0
   -8.5670   -0.6340   -1.1730 H   0  0  0  0  0
   -7.9520    0.9930   -1.5520 H   0  0  0  0  0
   -7.0440   -0.4450   -2.0750 H   0  0  0  0  0
  1  2  1  0  0  0
  1 36  1  0  0  0
  1 37  1  0  0  0
  2 38  1  0  0  0
  2 39  1  0  0  0
  3  2  1  0  0  0
  3 40  1  0  0  0
  4 15  1  0  0  0
  4  3  1  0  0  0
  4 41  1  0  0  0
  4 42  1  0  0  0
  5 17  2  0  0  0
  6 21  2  0  0  0
  6 43  1  0  0  0
  7 24  1  0  0  0
  8  9  1  0  0  0
  8 44  1  0  0  0
  8 45  1  0  0  0
  9 25  1  0  0  0
  9 46  1  0  0  0
  9 47  1  0  0  0
 10 48  1  0  0  0
 10 49  1  0  0  0
 10 50  1  0  0  0
 11 26  1  0  0  0
 11 51  1  0  0  0
 11 52  1  0  0  0
 12 53  1  0  0  0
 12 54  1  0  0  0
 12 55  1  0  0  0
 13 15  1  0  0  0
 13 12  1  0  0  0
 14 13  2  0  0  0
 15  1  1  0  0  0
 16  5  1  0  0  0
 16  3  1  0  0  0
 16 56  1  0  0  0
 17 18  1  0  0  0
 18 19  1  0  0  0
 19 20  1  0  0  0
 19 57  1  0  0  0
 20 23  2  0  0  0
 20  6  1  0  0  0
 21  7  1  0  0  0
 21 58  1  0  0  0
 22  7  2  0  0  0
 22 59  1  0  0  0
 23 22  1  0  0  0
 23 60  1  0  0  0
 24  8  1  0  0  0
 24 11  1  0  0  0
 25 10  1  0  0  0
 26 25  1  0  0  0
 26 61  1  0  0  0
 26 62  1  0  0  0
 27 18  2  0  0  0
 28 27  1  0  0  0
 29 28  2  0  0  0
 29 63  1  0  0  0
 30 29  1  0  0  0
 30 34  1  0  0  0
 31 30  1  0  0  0
 31 64  1  0  0  0
 32 31  1  0  0  0
 32 65  1  0  0  0
 32 66  1  0  0  0
 32 67  1  0  0  0
 33 31  1  0  0  0
 33 68  1  0  0  0
 33 69  1  0  0  0
 33 70  1  0  0  0
 34 27  1  0  0  0
 35 34  2  0  0  0
 35  5  1  0  0  0
M  END
$$$$
