@<TRIPOS>MOLECULE
8BP
30 33 0 0 0
SMALL
NO_CHARGES

@<TRIPOS>ATOM
     1 C5         -15.0170    16.8630   -25.8240 C.ar     1 LIG 0.0000
     2 C6         -13.2780    16.0040   -27.3730 C.ar     1 LIG 0.0000
     3 C8         -13.3460    13.6350   -27.8120 C.ar     1 LIG 0.0000
     4 C10        -11.6860    15.1020   -28.7310 C.ar     1 LIG 0.0000
     5 N12        -10.5940    15.0140   -29.5490 N.ar     1 LIG 0.0000
     6 C13        -10.4750    13.6790   -29.8950 C.ar     1 LIG 0.0000
     7 C15         -9.7540    16.1600   -29.9430 C.ar     1 LIG 0.0000
     8 C17         -8.3040    15.7750   -30.2900 C.ar     1 LIG 0.0000
     9 C20        -15.9450    12.9230   -26.1370 C.ar     1 LIG 0.0000
    10 C24        -18.0080    12.5190   -24.7810 C.ar     1 LIG 0.0000
    11 C28        -14.0410    18.1580   -21.6300 C.ar     1 LIG 0.0000
    12 C1         -15.2510    18.2580   -25.2380 C.ar     1 LIG 0.0000
    13 C2         -14.6040    19.1860   -26.2470 C.ar     1 LIG 0.0000
    14 C3         -13.3840    18.4120   -26.7340 C.ar     1 LIG 0.0000
    15 N4         -13.8590    17.0450   -26.6900 N.ar     1 LIG 0.0000
    16 N7         -13.8400    14.7730   -27.2160 N.ar     1 LIG 0.0000
    17 C9         -12.1870    13.8010   -28.6220 C.ar     1 LIG 0.0000
    18 N11        -12.1790    16.2270   -28.1450 N.ar     1 LIG 0.0000
    19 N14        -11.4160    12.9290   -29.3560 N.ar     1 LIG 0.0000
    20 C16        -10.3700    16.9000   -31.1340 C.ar     1 LIG 0.0000
    21 N18        -13.9800    12.3900   -27.6100 N.ar     1 LIG 0.0000
    22 C19        -15.1060    12.0990   -26.8760 C.ar     1 LIG 0.0000
    23 N21        -16.9070    12.1160   -25.6210 N.ar     1 LIG 0.0000
    24 N22        -16.7670    10.8240   -25.9590 N.ar     1 LIG 0.0000
    25 C23        -15.6680    10.8200   -26.7250 C.ar     1 LIG 0.0000
    26 F25        -15.4690    19.3650   -27.2880 F        1 LIG 0.0000
    27 N26        -14.5500    18.3780   -23.9550 N.ar     1 LIG 0.0000
    28 C27        -15.0180    17.8510   -22.7590 C.ar     1 LIG 0.0000
    29 C29        -14.3920    17.5020   -20.3030 C.ar     1 LIG 0.0000
    30 O30        -16.0730    17.2210   -22.6190 O.2      1 LIG 0.0000
@<TRIPOS>BOND
     1   20    7 1
     2    8    7 1
     3    7    5 1
     4    6    5 1
     5    6   19 2
     6    5    4 1
     7   19   17 1
     8    4   17 2
     9    4   18 1
    10   17    3 1
    11   18    2 2
    12    3   21 1
    13    3   16 2
    14   21   22 1
    15    2   16 1
    16    2   15 1
    17   26   13 1
    18   22   25 1
    19   22    9 2
    20   14   15 1
    21   14   13 1
    22   25   24 2
    23   15    1 1
    24   13   12 1
    25    9   23 1
    26   24   23 1
    27    1   12 1
    28   23   10 1
    29   12   27 1
    30   27   28 1
    31   28   30 2
    32   28   11 1
    33   11   29 1
