@<TRIPOS>MOLECULE
8BS
30 33 0 0 0
SMALL
NO_CHARGES

@<TRIPOS>ATOM
     1 C5         -15.0620    16.6030   -25.6110 C.ar     1 LIG 0.0000
     2 C6         -13.2960    15.7470   -27.1490 C.ar     1 LIG 0.0000
     3 C8         -13.3240    13.3790   -27.5890 C.ar     1 LIG 0.0000
     4 C10        -11.6800    14.8600   -28.4990 C.ar     1 LIG 0.0000
     5 N12        -10.5940    14.7630   -29.3130 N.ar     1 LIG 0.0000
     6 C13        -10.4560    13.4440   -29.6560 C.ar     1 LIG 0.0000
     7 C15         -9.7480    15.8520   -29.7370 C.ar     1 LIG 0.0000
     8 C17        -15.1190    11.8410   -26.7970 C.ar     1 LIG 0.0000
     9 C21        -15.8820    10.6910   -27.0500 C.ar     1 LIG 0.0000
    10 C24        -18.0140    12.0750   -24.6620 C.ar     1 LIG 0.0000
    11 C28        -14.0800    18.0860   -21.4410 C.ar     1 LIG 0.0000
    12 C1         -15.3170    18.0080   -25.0490 C.ar     1 LIG 0.0000
    13 C2         -14.6970    18.9160   -26.0950 C.ar     1 LIG 0.0000
    14 C3         -13.4440    18.1590   -26.5260 C.ar     1 LIG 0.0000
    15 N4         -13.8990    16.7860   -26.4740 N.ar     1 LIG 0.0000
    16 N7         -13.8470    14.5090   -26.9970 N.ar     1 LIG 0.0000
    17 C9         -12.1660    13.5560   -28.3890 C.ar     1 LIG 0.0000
    18 N11        -12.1910    15.9810   -27.9150 N.ar     1 LIG 0.0000
    19 N14        -11.3900    12.6860   -29.1170 N.ar     1 LIG 0.0000
    20 N16        -13.9450    12.1250   -27.4310 N.ar     1 LIG 0.0000
    21 C18        -15.8440    12.5310   -25.8370 C.ar     1 LIG 0.0000
    22 N19        -16.9490    11.7730   -25.5900 N.ar     1 LIG 0.0000
    23 N20        -17.0040    10.6400   -26.3160 N.ar     1 LIG 0.0000
    24 O22        -15.5240     9.7320   -27.9550 O.2      1 LIG 0.0000
    25 C23        -16.4200     8.6310   -28.1090 C.ar     1 LIG 0.0000
    26 F25        -15.5660    19.0150   -27.1490 F        1 LIG 0.0000
    27 N26        -14.6050    18.1890   -23.7740 N.ar     1 LIG 0.0000
    28 C27        -15.0610    17.7210   -22.5510 C.ar     1 LIG 0.0000
    29 C29        -14.3550    17.3890   -20.1160 C.ar     1 LIG 0.0000
    30 O30        -16.1100    17.0990   -22.3720 O.2      1 LIG 0.0000
@<TRIPOS>BOND
     1    7    5 1
     2    6    5 1
     3    6   19 2
     4    5    4 1
     5   19   17 1
     6    4   17 2
     7    4   18 1
     8   17    3 1
     9   25   24 1
    10   24    9 1
    11   18    2 2
    12    3   20 1
    13    3   16 2
    14   20    8 1
    15    2   16 1
    16    2   15 1
    17   26   13 1
    18    9    8 1
    19    9   23 2
    20    8   21 2
    21   14   15 1
    22   14   13 1
    23   15    1 1
    24   23   22 1
    25   13   12 1
    26   21   22 1
    27    1   12 1
    28   22   10 1
    29   12   27 1
    30   27   28 1
    31   28   30 2
    32   28   11 1
    33   11   29 1
