@<TRIPOS>MOLECULE
QFO
 72 76 0 0 0
SMALL
GASTEIGER

@<TRIPOS>ATOM
      1 C           3.3950   -5.6270   -1.0740 C.3     1  UNL1       -0.0586
      2 C           2.4900   -5.2370    0.0950 C.3     1  UNL1       -0.0195
      3 C           3.0200   -5.8690    1.3840 C.3     1  UNL1       -0.0586
      4 C           2.4740   -3.7370    0.2410 C.ar    1  UNL1       -0.0187
      5 C           3.6250   -3.0520    0.4840 C.ar    1  UNL1        0.0337
      6 N           3.6430   -1.7320    0.6170 N.ar    1  UNL1       -0.2393
      7 C           2.5550   -0.9890    0.5240 C.ar    1  UNL1        0.1305
      8 N           2.6350    0.3830    0.6710 N.pl3   1  UNL1       -0.3139
      9 C           2.6480    1.0580   -0.6450 C.3     1  UNL1        0.0193
     10 C           3.7480    1.9600   -0.0560 C.3     1  UNL1        0.0098
     11 C           4.9000    2.2390   -1.0240 C.3     1  UNL1        0.0711
     12 S           6.0490    3.4240   -0.2710 S.O2    1  UNL1       -0.0334
     13 O           5.3790    4.6680   -0.1170 O.2     1  UNL1       -0.1746
     14 O           6.6500    2.8140    0.8620 O.2     1  UNL1       -0.1746
     15 C           7.3060    3.6010   -1.5670 C.3     1  UNL1        0.0545
     16 C           4.0290    0.8090    0.9260 C.3     1  UNL1        0.0193
     17 C           1.3100   -1.6050    0.2730 C.ar    1  UNL1        0.0405
     18 C           0.1180   -0.8820    0.1620 C.ar    1  UNL1        0.0407
     19 N          -1.0120   -1.5090   -0.0730 N.ar    1  UNL1       -0.2394
     20 C          -1.0860   -2.8310   -0.2150 C.ar    1  UNL1        0.1245
     21 N          -2.3230   -3.4200   -0.4620 N.pl3   1  UNL1       -0.2842
     22 C          -3.4740   -2.6470   -0.4500 C.ar    1  UNL1        0.1290
     23 N          -3.3990   -1.3270   -0.3110 N.ar    1  UNL1       -0.1992
     24 C          -4.4970   -0.5860   -0.2990 C.ar    1  UNL1        0.2196
     25 N          -5.7010   -1.1250   -0.4220 N.ar    1  UNL1       -0.2227
     26 C          -5.8490   -2.4340   -0.5640 C.ar    1  UNL1        0.0344
     27 C          -4.7290   -3.2430   -0.5890 C.ar    1  UNL1       -0.0033
     28 N          -4.3840    0.7860   -0.1520 N.pl3   1  UNL1       -0.2964
     29 C          -3.6380    1.1250    1.0670 C.3     1  UNL1        0.0174
     30 C          -3.4070    2.6370    1.1210 C.3     1  UNL1       -0.0079
     31 C          -4.7590    3.3560    1.1100 C.3     1  UNL1        0.0916
     32 O          -4.5480    4.7690    1.1040 O.3     1  UNL1       -0.3886
     33 C          -5.5350    2.9480   -0.1460 C.3     1  UNL1        0.1500
     34 C          -6.9120    3.6150   -0.1350 C.3     1  UNL1       -0.0270
     35 F          -4.8290    3.3520   -1.2840 F       1  UNL1       -0.2379
     36 C          -5.7050    1.4270   -0.1630 C.3     1  UNL1        0.0510
     37 C           0.0360   -3.6310   -0.1220 C.ar    1  UNL1       -0.0134
     38 C           1.2720   -3.0180    0.1220 C.ar    1  UNL1       -0.0050
     39 H           3.4060   -6.7120   -1.1790 H       1  UNL1        0.0235
     40 H           3.0170   -5.1770   -1.9920 H       1  UNL1        0.0235
     41 H           4.4080   -5.2700   -0.8850 H       1  UNL1        0.0235
     42 H           1.4770   -5.5940   -0.0940 H       1  UNL1        0.0344
     43 H           2.3750   -5.5910    2.2170 H       1  UNL1        0.0235
     44 H           3.0310   -6.9540    1.2790 H       1  UNL1        0.0235
     45 H           4.0320   -5.5120    1.5740 H       1  UNL1        0.0235
     46 H           4.5520   -3.5990    0.5720 H       1  UNL1        0.0833
     47 H           2.9920    0.4220   -1.4610 H       1  UNL1        0.0468
     48 H           1.7240    1.5870   -0.8770 H       1  UNL1        0.0468
     49 H           3.3660    2.8620    0.4220 H       1  UNL1        0.0347
     50 H           5.4260    1.3090   -1.2400 H       1  UNL1        0.0503
     51 H           4.5030    2.6550   -1.9510 H       1  UNL1        0.0503
     52 H           6.8390    3.9780   -2.4770 H       1  UNL1        0.0464
     53 H           8.0720    4.3020   -1.2360 H       1  UNL1        0.0464
     54 H           7.7610    2.6320   -1.7670 H       1  UNL1        0.0464
     55 H           4.2070    1.1390    1.9490 H       1  UNL1        0.0468
     56 H           4.7760    0.1000    0.5700 H       1  UNL1        0.0468
     57 H           0.1270    0.1920    0.2690 H       1  UNL1        0.0837
     58 H          -2.3790   -4.3710   -0.6440 H       1  UNL1        0.1550
     59 H          -6.8350   -2.8640   -0.6650 H       1  UNL1        0.0832
     60 H          -4.8230   -4.3120   -0.7080 H       1  UNL1        0.0667
     61 H          -4.2110    0.8140    1.9410 H       1  UNL1        0.0465
     62 H          -2.6770    0.6110    1.0600 H       1  UNL1        0.0465
     63 H          -2.8680    2.8900    2.0330 H       1  UNL1        0.0306
     64 H          -2.8230    2.9470    0.2540 H       1  UNL1        0.0306
     65 H          -5.3280    3.0760    1.9970 H       1  UNL1        0.0626
     66 H          -4.0580    5.0970    1.8700 H       1  UNL1        0.2099
     67 H          -7.4610    3.3010    0.7530 H       1  UNL1        0.0261
     68 H          -6.7910    4.6980   -0.1220 H       1  UNL1        0.0261
     69 H          -7.4650    3.3210   -1.0270 H       1  UNL1        0.0261
     70 H          -6.2440    1.1320   -1.0630 H       1  UNL1        0.0497
     71 H          -6.2670    1.1140    0.7170 H       1  UNL1        0.0497
     72 H          -0.0360   -4.7020   -0.2390 H       1  UNL1        0.0658
@<TRIPOS>BOND
     1     1    39    1
     2     1    40    1
     3     1    41    1
     4     2     1    1
     5     2    42    1
     6     3     2    1
     7     3    43    1
     8     3    44    1
     9     3    45    1
    10     4     5   ar
    11     4     2    1
    12     5    46    1
    13     6     5   ar
    14     7     6   ar
    15     8    16    1
    16     8     7    1
    17     9    10    1
    18     9     8    1
    19     9    47    1
    20     9    48    1
    21    10    16    1
    22    10    49    1
    23    11    10    1
    24    11    50    1
    25    11    51    1
    26    12    11    1
    27    12    14    2
    28    13    12    2
    29    15    12    1
    30    15    52    1
    31    15    53    1
    32    15    54    1
    33    16    55    1
    34    16    56    1
    35    17     7   ar
    36    17    38   ar
    37    18    17   ar
    38    18    57    1
    39    19    18   ar
    40    19    20   ar
    41    20    37   ar
    42    21    20    1
    43    21    22    1
    44    21    58    1
    45    22    27   ar
    46    22    23   ar
    47    23    24   ar
    48    24    25   ar
    49    24    28    1
    50    26    25   ar
    51    26    59    1
    52    27    26   ar
    53    27    60    1
    54    28    36    1
    55    28    29    1
    56    29    61    1
    57    29    62    1
    58    30    31    1
    59    30    29    1
    60    30    63    1
    61    30    64    1
    62    31    65    1
    63    32    31    1
    64    32    66    1
    65    33    34    1
    66    33    36    1
    67    33    31    1
    68    34    67    1
    69    34    68    1
    70    34    69    1
    71    35    33    1
    72    36    70    1
    73    36    71    1
    74    37    38   ar
    75    37    72    1
    76    38     4   ar
