@<TRIPOS>MOLECULE
8RC
41 45 0 0 0
SMALL
NO_CHARGES

@<TRIPOS>ATOM
     1 C12          0.1030    49.5410   -16.9100 C.ar     1 LIG 0.0000
     2 C14          1.7370    51.0550   -16.1810 C.ar     1 LIG 0.0000
     3 C11          0.3020    49.9710   -18.2100 C.ar     1 LIG 0.0000
     4 C15          1.9470    51.5010   -17.4690 C.ar     1 LIG 0.0000
     5 C13          0.8150    50.0700   -15.8510 C.ar     1 LIG 0.0000
     6 C10          1.2250    50.9540   -18.5050 C.ar     1 LIG 0.0000
     7 C1           1.2150    51.7890   -22.1810 C.ar     1 LIG 0.0000
     8 C5           0.0390    50.4110   -23.5020 C.ar     1 LIG 0.0000
     9 C2           0.9580    51.0160   -21.0510 C.ar     1 LIG 0.0000
    10 C4          -0.2170    49.6100   -22.3970 C.ar     1 LIG 0.0000
    11 C29          1.9860    53.0260   -22.0470 C.ar     1 LIG 0.0000
    12 C38         -5.1360    48.2170   -20.6120 C.ar     1 LIG 0.0000
    13 C18         -0.7910    48.5610   -12.8650 C.ar     1 LIG 0.0000
    14 C20          1.1830    49.9900   -12.1990 C.ar     1 LIG 0.0000
    15 C37         -1.9980    46.5500   -21.6860 C.ar     1 LIG 0.0000
    16 C17         -0.7280    49.1790   -14.2500 C.ar     1 LIG 0.0000
    17 C21          1.0570    50.6330   -13.5570 C.ar     1 LIG 0.0000
    18 C36         -3.4860    46.5310   -21.3900 C.ar     1 LIG 0.0000
    19 C23         -1.1220    49.0580    -9.4490 C.ar     1 LIG 0.0000
    20 C27          0.6170    47.4420   -10.4250 C.ar     1 LIG 0.0000
    21 C24         -0.6430    48.7110    -8.0500 C.ar     1 LIG 0.0000
    22 C26          1.2720    47.3230    -9.0760 C.ar     1 LIG 0.0000
    23 C34         -2.8080    48.7780   -21.1430 C.ar     1 LIG 0.0000
    24 C19         -0.1710    49.4580   -11.7860 C.ar     1 LIG 0.0000
    25 C33         -1.5560    47.9640   -21.4200 C.ar     1 LIG 0.0000
    26 C32          0.4960    49.2690   -25.6460 C.ar     1 LIG 0.0000
    27 C41         -6.7850    49.2110   -19.0860 C.ar     1 LIG 0.0000
    28 C28          0.6760    46.9640    -6.7690 C.ar     1 LIG 0.0000
    29 C9          -0.4960    50.0710   -24.8500 C.ar     1 LIG 0.0000
    30 C40         -5.4980    48.4020   -19.1640 C.ar     1 LIG 0.0000
    31 N6           0.7740    51.5260   -23.4140 N.ar     1 LIG 0.0000
    32 N3           0.2370    49.8910   -21.1590 N.ar     1 LIG 0.0000
    33 N16          0.6240    49.6200   -14.5080 N.ar     1 LIG 0.0000
    34 N35         -3.8240    47.8210   -20.8260 N.ar     1 LIG 0.0000
    35 N22         -0.0190    48.8000   -10.4450 N.ar     1 LIG 0.0000
    36 N25          0.1550    47.4230    -8.0840 N.ar     1 LIG 0.0000
    37 N31          2.1710    53.7790   -23.1500 N.ar     1 LIG 0.0000
    38 N7           1.4840    51.4360   -19.8030 N.ar     1 LIG 0.0000
    39 O30          2.3920    53.3930   -20.9660 O.2      1 LIG 0.0000
    40 O39         -5.9460    48.3960   -21.5150 O.2      1 LIG 0.0000
    41 O8          -0.9770    48.4550   -22.6120 O.2      1 LIG 0.0000
@<TRIPOS>BOND
     1   26   29 1
     2   29    8 1
     3    8   31 2
     4    8   10 1
     5   31    7 1
     6   37   11 1
     7   41   10 1
     8   41   25 1
     9   10   32 2
    10    7   11 1
    11    7    9 2
    12   11   39 2
    13   15   25 1
    14   15   18 1
    15   40   12 2
    16   25   23 1
    17   18   34 1
    18   32    9 1
    19   23   34 1
    20    9   38 1
    21   34   12 1
    22   12   30 1
    23   38    6 1
    24   30   27 2
    25    6    3 2
    26    6    4 1
    27    3    1 1
    28    4    2 2
    29    1    5 2
    30    2    5 1
    31    5   33 1
    32   33   16 1
    33   33   17 1
    34   16   13 1
    35   17   14 1
    36   13   24 1
    37   14   24 1
    38   24   35 1
    39   35   20 1
    40   35   19 1
    41   20   22 1
    42   19   21 1
    43   22   36 1
    44   36   21 1
    45   36   28 1
