8RC
  CCTOOLS-1004241129

 83 87  0  0  1  0  0  0  0  0999 V2000
    0.4180    2.8500   -0.4460 C   0  0  0  0  0
    0.0030    0.5980    0.2900 C   0  0  0  0  0
   -0.9240    3.1440   -0.3030 C   0  0  0  0  0
   -1.3390    0.8900    0.4280 C   0  0  0  0  0
    0.8850    1.5750   -0.1530 C   0  0  0  0  0
   -1.8060    2.1650    0.1340 C   0  0  0  0  0
   -5.4810    1.7830    0.1540 C   0  0  0  0  0
   -6.0020   -0.4290   -0.1590 C   0  0  0  0  0
   -4.1130    1.4650    0.1310 C   0  0  0  0  0
   -4.6420   -0.7480   -0.1770 C   0  0  0  0  0
   -5.9130    3.1810    0.3370 C   0  0  0  0  0
    0.2030   -3.5080    1.0170 C   0  0  0  0  0
    3.9780   -0.4530   -0.2550 C   0  0  0  0  0
    4.5530    1.9370    0.1740 C   0  0  0  0  0
   -2.6470   -3.5670   -1.4000 C   0  0  0  0  0
    2.5180   -0.1200    0.0600 C   0  0  0  0  0
    3.0760    2.2010    0.4750 C   0  0  0  0  0
   -1.2290   -4.0080   -0.9800 C   0  0  0  0  0
    6.5710    0.5560   -1.2100 C   0  0  0  0  0
    7.2070    0.9260    1.0960 C   0  0  0  0  0
    8.0160    0.1810   -1.5480 C   0  0  0  0  0
    8.6510    0.5510    0.7580 C   0  0  0  0  0
   -2.1230   -2.6020    0.7370 C   0  0  0  0  0
    4.8920    0.4880    0.5340 C   0  0  0  0  0
   -2.8620   -2.2660   -0.5820 C   0  0  0  0  0
   -7.3510   -1.6890   -1.8140 C   0  0  0  0  0
    2.4360   -4.4460    1.1690 C   0  0  0  0  0
   10.3300    0.6180   -0.9860 C   0  0  0  0  0
   -7.0300   -1.5170   -0.3280 C   0  0  0  0  0
    1.3040   -4.3240    0.4820 C   0  0  0  0  0
   -6.3870    0.8180    0.0040 N   0  0  0  0  0
   -3.7320    0.2040   -0.0340 N   0  0  0  0  0
    2.2430    1.2760   -0.3040 N   0  0  0  0  0
   -0.9450   -3.3840    0.3200 N   0  0  0  0  0
    6.2940    0.2130    0.1920 N   0  0  0  0  0
    8.9290    0.8940   -0.6440 N   0  0  0  0  0
   -7.2190    3.4650    0.5170 N   0  0  0  0  0
   -3.1670    2.4630    0.2800 N   0  0  0  0  0
   -5.0920    4.0770    0.3250 O   0  0  0  0  0
    0.3270   -2.9450    2.0880 O   0  0  0  0  0
   -4.2520   -2.0350   -0.3450 O   0  0  0  0  0
    1.1030    3.6100   -0.7910 H   0  0  0  0  0
    0.3660   -0.3930    0.5190 H   0  0  0  0  0
   -1.2870    4.1350   -0.5310 H   0  0  0  0  0
   -2.0250    0.1300    0.7720 H   0  0  0  0  0
    4.1860   -1.4850    0.0300 H   0  0  0  0  0
    4.1590   -0.3260   -1.3220 H   0  0  0  0  0
    4.7420    2.1020   -0.8870 H   0  0  0  0  0
    5.1720    2.6140    0.7630 H   0  0  0  0  0
   -2.6850   -3.3600   -2.4700 H   0  0  0  0  0
   -3.3830   -4.3220   -1.1250 H   0  0  0  0  0
    1.8640   -0.7800   -0.5110 H   0  0  0  0  0
    2.3340   -0.2610    1.1250 H   0  0  0  0  0
    2.8900    2.0490    1.5390 H   0  0  0  0  0
    2.8280    3.2270    0.2060 H   0  0  0  0  0
   -1.1900   -5.0930   -0.8880 H   0  0  0  0  0
   -0.5020   -3.6710   -1.7200 H   0  0  0  0  0
    6.4290    1.6260   -1.3570 H   0  0  0  0  0
    5.8910    0.0060   -1.8600 H   0  0  0  0  0
    6.9900    0.6460    2.1270 H   0  0  0  0  0
    7.0720    2.0010    0.9760 H   0  0  0  0  0
    8.1500   -0.8940   -1.4270 H   0  0  0  0  0
    8.2320    0.4600   -2.5790 H   0  0  0  0  0
    9.3320    1.1010    1.4090 H   0  0  0  0  0
    8.7930   -0.5200    0.9050 H   0  0  0  0  0
   -1.8120   -1.6870    1.2410 H   0  0  0  0  0
   -2.7610   -3.1970    1.3910 H   0  0  0  0  0
    4.7400    0.3340    1.6020 H   0  0  0  0  0
   -2.4050   -1.4110   -1.0790 H   0  0  0  0  0
   -7.7430   -0.7530   -2.2120 H   0  0  0  0  0
   -6.4430   -1.9610   -2.3520 H   0  0  0  0  0
   -8.0950   -2.4760   -1.9360 H   0  0  0  0  0
    3.2440   -5.0440    0.7770 H   0  0  0  0  0
    2.5470   -3.9460    2.1200 H   0  0  0  0  0
   10.5390   -0.4420   -0.8370 H   0  0  0  0  0
   10.5080    0.8810   -2.0290 H   0  0  0  0  0
   10.9840    1.2100   -0.3450 H   0  0  0  0  0
   -6.6390   -2.4530    0.0700 H   0  0  0  0  0
   -7.9380   -1.2450    0.2100 H   0  0  0  0  0
    1.1930   -4.8230   -0.4690 H   0  0  0  0  0
   -7.8740    2.7490    0.5270 H   0  0  0  0  0
   -7.5030    4.3840    0.6380 H   0  0  0  0  0
   -3.4450    3.3690    0.4850 H   0  0  0  0  0
  1  5  2  0  0  0
  1 42  1  0  0  0
  2  5  1  0  0  0
  2 43  1  0  0  0
  3  1  1  0  0  0
  3 44  1  0  0  0
  4  2  2  0  0  0
  4 45  1  0  0  0
  5 33  1  0  0  0
  6  3  2  0  0  0
  6  4  1  0  0  0
  7 11  1  0  0  0
  7  9  2  0  0  0
  8 31  2  0  0  0
  8 10  1  0  0  0
  9 38  1  0  0  0
 10 32  2  0  0  0
 11 39  2  0  0  0
 12 30  1  0  0  0
 13 24  1  0  0  0
 13 46  1  0  0  0
 13 47  1  0  0  0
 14 24  1  0  0  0
 14 48  1  0  0  0
 14 49  1  0  0  0
 15 25  1  0  0  0
 15 18  1  0  0  0
 15 50  1  0  0  0
 15 51  1  0  0  0
 16 13  1  0  0  0
 16 52  1  0  0  0
 16 53  1  0  0  0
 17 14  1  0  0  0
 17 54  1  0  0  0
 17 55  1  0  0  0
 18 34  1  0  0  0
 18 56  1  0  0  0
 18 57  1  0  0  0
 19 21  1  0  0  0
 19 58  1  0  0  0
 19 59  1  0  0  0
 20 22  1  0  0  0
 20 60  1  0  0  0
 20 61  1  0  0  0
 21 62  1  0  0  0
 21 63  1  0  0  0
 22 36  1  0  0  0
 22 64  1  0  0  0
 22 65  1  0  0  0
 23 34  1  0  0  0
 23 66  1  0  0  0
 23 67  1  0  0  0
 24 35  1  0  0  0
 24 68  1  0  0  0
 25 23  1  0  0  0
 25 69  1  0  0  0
 26 29  1  0  0  0
 26 70  1  0  0  0
 26 71  1  0  0  0
 26 72  1  0  0  0
 27 73  1  0  0  0
 27 74  1  0  0  0
 28 75  1  0  0  0
 28 76  1  0  0  0
 28 77  1  0  0  0
 29  8  1  0  0  0
 29 78  1  0  0  0
 29 79  1  0  0  0
 30 27  2  0  0  0
 30 80  1  0  0  0
 31  7  1  0  0  0
 32  9  1  0  0  0
 33 16  1  0  0  0
 33 17  1  0  0  0
 34 12  1  0  0  0
 35 20  1  0  0  0
 35 19  1  0  0  0
 36 21  1  0  0  0
 36 28  1  0  0  0
 37 11  1  0  0  0
 37 81  1  0  0  0
 37 82  1  0  0  0
 38  6  1  0  0  0
 38 83  1  0  0  0
 40 12  2  0  0  0
 41 10  1  0  0  0
 41 25  1  0  0  0
M  END
$$$$
