@<TRIPOS>MOLECULE
HZ6
 45 47 0 0 0
SMALL
GASTEIGER

@<TRIPOS>ATOM
      1 C          -5.0630    0.0390   -0.1420 C.2     1  UNL1        0.2155
      2 C          -5.6710    0.6310    1.1030 C.3     1  UNL1        0.0213
      3 C           4.5430   -1.6550    0.3080 C.ar    1  UNL1        0.1204
      4 N           3.6780   -2.6530    0.2750 N.ar    1  UNL1       -0.2202
      5 C          -2.8610   -0.9040   -1.1640 C.3     1  UNL1        0.0534
      6 C          -7.1480    0.9410    0.8520 C.3     1  UNL1       -0.0570
      7 C          -1.7170   -0.2400   -0.3770 C.3     1  UNL1        0.1331
      8 C           0.6390   -0.4510   -0.1350 C.ar    1  UNL1        0.2470
      9 N          -3.7630   -0.3140   -0.1550 N.am    1  UNL1       -0.2943
     10 C          -2.6680   -0.2660    0.8340 C.3     1  UNL1        0.0534
     11 C           2.3750   -2.4290    0.1350 C.ar    1  UNL1        0.1339
     12 C           1.9360   -1.0990    0.0240 C.ar    1  UNL1        0.1211
     13 C           2.8950   -0.0680    0.0650 C.ar    1  UNL1        0.1675
     14 C           2.8230    2.4390   -0.0700 C.3     1  UNL1        0.0576
     15 C           3.8070    2.5430   -1.2370 C.3     1  UNL1       -0.0402
     16 C           3.5660    2.6700    1.2470 C.3     1  UNL1       -0.0402
     17 C           1.7290    3.4960   -0.2310 C.3     1  UNL1       -0.0402
     18 N           1.4760   -3.4770    0.1010 N.pl3   1  UNL1       -0.3424
     19 N           2.2160    1.1060   -0.0610 N.ar    1  UNL1       -0.2374
     20 N           0.8480    0.8390   -0.1810 N.ar    1  UNL1       -0.1303
     21 N           4.1790   -0.3950    0.2080 N.ar    1  UNL1       -0.2160
     22 O          -0.5660   -1.0730   -0.2220 O.3     1  UNL1       -0.4684
     23 O          -5.7460   -0.1250   -1.1310 O.2     1  UNL1       -0.2756
     24 H          -5.5830   -0.0800    1.9240 H       1  UNL1        0.0356
     25 H          -5.1460    1.5510    1.3610 H       1  UNL1        0.0356
     26 H           5.5920   -1.8830    0.4280 H       1  UNL1        0.1048
     27 H          -2.9980   -0.4990   -2.1660 H       1  UNL1        0.0501
     28 H          -2.8330   -1.9940   -1.1440 H       1  UNL1        0.0501
     29 H          -7.5880    1.3690    1.7530 H       1  UNL1        0.0234
     30 H          -7.2360    1.6520    0.0310 H       1  UNL1        0.0234
     31 H          -7.6730    0.0210    0.5940 H       1  UNL1        0.0234
     32 H          -1.4730    0.7650   -0.7210 H       1  UNL1        0.0765
     33 H          -2.5830   -1.1680    1.4400 H       1  UNL1        0.0501
     34 H          -2.6510    0.6490    1.4260 H       1  UNL1        0.0501
     35 H           4.5870    1.7890   -1.1220 H       1  UNL1        0.0253
     36 H           3.2780    2.3780   -2.1750 H       1  UNL1        0.0253
     37 H           4.2590    3.5340   -1.2440 H       1  UNL1        0.0253
     38 H           4.0180    3.6620    1.2400 H       1  UNL1        0.0253
     39 H           2.8650    2.5960    2.0780 H       1  UNL1        0.0253
     40 H           4.3460    1.9170    1.3610 H       1  UNL1        0.0253
     41 H           1.1990    3.3310   -1.1690 H       1  UNL1        0.0253
     42 H           1.0270    3.4220    0.6000 H       1  UNL1        0.0253
     43 H           2.1810    4.4880   -0.2380 H       1  UNL1        0.0253
     44 H           1.7930   -4.3910    0.1780 H       1  UNL1        0.1437
     45 H           0.5280   -3.3000   -0.0020 H       1  UNL1        0.1437
@<TRIPOS>BOND
     1     1     2    1
     2     1     9   am
     3     1    23    2
     4     2     6    1
     5     2    24    1
     6     2    25    1
     7     3     4   ar
     8     3    21   ar
     9     3    26    1
    10     4    11   ar
    11     5     7    1
    12     5     9    1
    13     5    27    1
    14     5    28    1
    15     6    29    1
    16     6    30    1
    17     6    31    1
    18     7    10    1
    19     7    22    1
    20     7    32    1
    21     8    12   ar
    22     8    20   ar
    23     8    22    1
    24     9    10    1
    25    10    33    1
    26    10    34    1
    27    11    12   ar
    28    11    18    1
    29    12    13   ar
    30    13    19   ar
    31    13    21   ar
    32    14    15    1
    33    14    16    1
    34    14    17    1
    35    14    19    1
    36    15    35    1
    37    15    36    1
    38    15    37    1
    39    16    38    1
    40    16    39    1
    41    16    40    1
    42    17    41    1
    43    17    42    1
    44    17    43    1
    45    18    44    1
    46    18    45    1
    47    19    20   ar
