9JO
     RDKit          3D

 44 49  0  0  0  0  0  0  0  0999 V2000
   -0.7850    0.4820   -0.2570 C   0  0  0  0  0  0  0  0  0  0  0  0
   -0.2350    1.7470   -0.4760 C   0  0  0  0  0  0  0  0  0  0  0  0
    1.1270    1.8850   -0.5830 C   0  0  0  0  0  0  0  0  0  0  0  0
    1.8870    0.8010   -0.4740 N   0  0  0  0  0  0  0  0  0  0  0  0
    0.0340   -0.5570   -0.1560 N   0  0  0  0  0  0  0  0  0  0  0  0
    1.3450   -0.3890   -0.2650 C   0  0  0  0  0  0  0  0  0  0  0  0
   -8.6080   -6.0030   -0.3120 C   0  0  0  0  0  0  0  0  0  0  0  0
    6.6390   -3.1370   -1.3950 C   0  0  0  0  0  0  0  0  0  0  0  0
   11.6010    0.6380    0.5880 C   0  0  0  0  0  0  0  0  0  0  0  0
   -5.4200    5.7030   -0.7250 C   0  0  0  0  0  0  0  0  0  0  0  0
   -5.0300    5.0220   -1.8640 C   0  0  0  0  0  0  0  0  0  0  0  0
   -4.8810    5.3680    0.5030 C   0  0  0  0  0  0  0  0  0  0  0  0
   -4.1000    4.0040   -1.7780 C   0  0  0  0  0  0  0  0  0  0  0  0
    4.1260   -0.2160    0.4690 C   0  0  0  0  0  0  0  0  0  0  0  0
    5.4970   -0.0520    0.4800 C   0  0  0  0  0  0  0  0  0  0  0  0
    4.3810   -2.2740   -0.7500 C   0  0  0  0  0  0  0  0  0  0  0  0
   -7.2690   -5.8640    0.4140 C   0  0  0  0  0  0  0  0  0  0  0  0
   -4.2110   -2.7770   -0.8280 C   0  0  0  0  0  0  0  0  0  0  0  0
   -4.0430   -2.4200    1.6390 C   0  0  0  0  0  0  0  0  0  0  0  0
   -3.6430   -1.3780   -1.0700 C   0  0  0  0  0  0  0  0  0  0  0  0
   -3.4740   -1.0200    1.3970 C   0  0  0  0  0  0  0  0  0  0  0  0
    9.7590   -0.8030    1.2160 C   0  0  0  0  0  0  0  0  0  0  0  0
    9.6140    0.5400   -0.7920 C   0  0  0  0  0  0  0  0  0  0  0  0
    8.2330   -0.9090    1.2560 C   0  0  0  0  0  0  0  0  0  0  0  0
    8.0870    0.4340   -0.7530 C   0  0  0  0  0  0  0  0  0  0  0  0
   -1.1750    2.9230   -0.5890 C   0  0  0  0  0  0  0  0  0  0  0  0
   -6.7090   -4.4850    0.1770 C   0  0  0  0  0  0  0  0  0  0  0  0
   -3.0090    1.3650   -0.2450 C   0  0  0  0  0  0  0  0  0  0  0  0
    5.7520   -2.1100   -0.7390 C   0  0  0  0  0  0  0  0  0  0  0  0
   -3.9500    4.3510    0.5970 C   0  0  0  0  0  0  0  0  0  0  0  0
    3.5640   -1.3270   -0.1460 C   0  0  0  0  0  0  0  0  0  0  0  0
    6.3140   -0.9990   -0.1240 C   0  0  0  0  0  0  0  0  0  0  0  0
   -3.5560    3.6650   -0.5460 C   0  0  0  0  0  0  0  0  0  0  0  0
   -4.9840   -2.7930    0.4920 C   0  0  2  0  0  0  0  0  0  0  0  0
   -2.7010   -1.0050    0.0770 C   0  0  2  0  0  0  0  0  0  0  0  0
    2.1730   -1.4930   -0.1560 N   0  0  0  0  0  0  0  0  0  0  0  0
   -5.5280   -4.1340    0.7230 N   0  0  0  0  0  0  0  0  0  0  0  0
   10.1430    0.4630    0.5770 N   0  0  0  0  0  0  0  0  0  0  0  0
    7.7040   -0.8320   -0.1130 N   0  0  0  0  0  0  0  0  0  0  0  0
   -2.6140    2.6340   -0.4550 N   0  0  0  0  0  0  0  0  0  0  0  0
   -2.1570    0.3360   -0.1540 N   0  0  0  0  0  0  0  0  0  0  0  0
   -7.3210   -3.6910   -0.5070 O   0  0  0  0  0  0  0  0  0  0  0  0
   -4.2000    1.1400   -0.1420 O   0  0  0  0  0  0  0  0  0  0  0  0
   -3.2730    3.9310    2.1390 Cl  0  0  0  0  0  0  0  0  0  0  0  0
  1  5  1  0
  2  3  1  0
  2  1  2  0
  3  4  2  0
  4  6  1  0
  5  6  2  0
  6 36  1  0
  7 17  1  0
 10 12  1  0
 10 11  2  0
 11 13  1  0
 12 30  2  0
 13 33  2  0
 14 31  1  0
 14 15  2  0
 15 32  1  0
 16 29  1  0
 17 27  1  0
 20 18  1  0
 21 35  1  0
 21 19  1  0
 22 38  1  0
 23 38  1  0
 24 39  1  0
 24 22  1  0
 25 23  1  0
 26  2  1  0
 27 42  2  0
 27 37  1  0
 28 41  1  0
 29  8  1  0
 30 44  1  0
 30 33  1  0
 31 16  2  0
 32 29  2  0
 32 39  1  0
 33 40  1  0
 34 19  1  0
 34 37  1  1
 34 18  1  0
 35 20  1  0
 36 31  1  0
 38  9  1  0
 39 25  1  0
 40 26  1  0
 40 28  1  0
 41  1  1  0
 35 41  1  6
 43 28  2  0
M  END
$$$$
