9JO
  CCTOOLS-0919241038

 85 90  0  0  0  0  0  0  0  0999 V2000
   -0.7850    0.4820   -0.2570 C   0  0  0  0  0
   -0.2350    1.7470   -0.4760 C   0  0  0  0  0
    1.1270    1.8850   -0.5830 C   0  0  0  0  0
    1.8870    0.8010   -0.4740 N   0  0  0  0  0
    0.0340   -0.5570   -0.1560 N   0  0  0  0  0
    1.3450   -0.3890   -0.2650 C   0  0  0  0  0
   -8.6080   -6.0030   -0.3120 C   0  0  0  0  0
    6.6390   -3.1370   -1.3950 C   0  0  0  0  0
   11.6010    0.6380    0.5880 C   0  0  0  0  0
   -5.4200    5.7030   -0.7250 C   0  0  0  0  0
   -5.0300    5.0220   -1.8640 C   0  0  0  0  0
   -4.8810    5.3680    0.5030 C   0  0  0  0  0
   -4.1000    4.0040   -1.7780 C   0  0  0  0  0
    4.1260   -0.2160    0.4690 C   0  0  0  0  0
    5.4970   -0.0520    0.4800 C   0  0  0  0  0
    4.3810   -2.2740   -0.7500 C   0  0  0  0  0
   -7.2690   -5.8640    0.4140 C   0  0  0  0  0
   -4.2110   -2.7770   -0.8280 C   0  0  0  0  0
   -4.0430   -2.4200    1.6390 C   0  0  0  0  0
   -3.6430   -1.3780   -1.0700 C   0  0  0  0  0
   -3.4740   -1.0200    1.3970 C   0  0  0  0  0
    9.7590   -0.8030    1.2160 C   0  0  0  0  0
    9.6140    0.5400   -0.7920 C   0  0  0  0  0
    8.2330   -0.9090    1.2560 C   0  0  0  0  0
    8.0870    0.4340   -0.7530 C   0  0  0  0  0
   -1.1750    2.9230   -0.5890 C   0  0  0  0  0
   -6.7090   -4.4850    0.1770 C   0  0  0  0  0
   -3.0090    1.3650   -0.2450 C   0  0  0  0  0
    5.7520   -2.1100   -0.7390 C   0  0  0  0  0
   -3.9500    4.3510    0.5970 C   0  0  0  0  0
    3.5640   -1.3270   -0.1460 C   0  0  0  0  0
    6.3140   -0.9990   -0.1240 C   0  0  0  0  0
   -3.5560    3.6650   -0.5460 C   0  0  0  0  0
   -4.9840   -2.7930    0.4920 C   0  0  0  0  0
   -2.7010   -1.0050    0.0770 C   0  0  0  0  0
    2.1730   -1.4930   -0.1560 N   0  0  0  0  0
   -5.5280   -4.1340    0.7230 N   0  0  0  0  0
   10.1430    0.4630    0.5770 N   0  0  0  0  0
    7.7040   -0.8320   -0.1130 N   0  0  0  0  0
   -2.6140    2.6340   -0.4550 N   0  0  0  0  0
   -2.1570    0.3360   -0.1540 N   0  0  0  0  0
   -7.3210   -3.6910   -0.5070 O   0  0  0  0  0
   -4.2000    1.1400   -0.1420 O   0  0  0  0  0
   -3.2730    3.9310    2.1390 CL  0  0  0  0  0
    1.5710    2.8550   -0.7540 H   0  0  0  0  0
   -9.3070   -5.2560    0.0680 H   0  0  0  0  0
   -8.4600   -5.8500   -1.3810 H   0  0  0  0  0
   -9.0140   -7.0000   -0.1400 H   0  0  0  0  0
    6.8750   -2.8180   -2.4100 H   0  0  0  0  0
    7.5610   -3.2390   -0.8230 H   0  0  0  0  0
    6.1220   -4.0960   -1.4260 H   0  0  0  0  0
   12.0700   -0.1840    0.0460 H   0  0  0  0  0
   11.8580    1.5830    0.1090 H   0  0  0  0  0
   11.9590    0.6440    1.6180 H   0  0  0  0  0
   -6.1440    6.5010   -0.7960 H   0  0  0  0  0
   -5.4530    5.2860   -2.8220 H   0  0  0  0  0
   -5.1880    5.9020    1.3910 H   0  0  0  0  0
   -3.7960    3.4730   -2.6670 H   0  0  0  0  0
    3.4900    0.5180    0.9420 H   0  0  0  0  0
    5.9340    0.8120    0.9580 H   0  0  0  0  0
    3.9450   -3.1380   -1.2280 H   0  0  0  0  0
   -7.4180   -6.0160    1.4830 H   0  0  0  0  0
   -6.5710   -6.6100    0.0350 H   0  0  0  0  0
   -4.8820   -3.0430   -1.6450 H   0  0  0  0  0
   -3.3950   -3.4980   -0.7800 H   0  0  0  0  0
   -3.2260   -3.1410    1.6870 H   0  0  0  0  0
   -4.5930   -2.4320    2.5790 H   0  0  0  0  0
   -3.0920   -1.3660   -2.0100 H   0  0  0  0  0
   -4.4590   -0.6570   -1.1180 H   0  0  0  0  0
   -4.2910   -0.3000    1.3490 H   0  0  0  0  0
   -2.8030   -0.7550    2.2140 H   0  0  0  0  0
   10.1520   -0.8310    2.2330 H   0  0  0  0  0
   10.1680   -1.6370    0.6460 H   0  0  0  0  0
   10.0200   -0.2780   -1.3860 H   0  0  0  0  0
    9.9010    1.4920   -1.2400 H   0  0  0  0  0
    7.9460   -1.8610    1.7030 H   0  0  0  0  0
    7.8260   -0.0900    1.8490 H   0  0  0  0  0
    7.6790    1.2680   -0.1820 H   0  0  0  0  0
    7.6950    0.4620   -1.7690 H   0  0  0  0  0
   -0.9030    3.6460    0.1800 H   0  0  0  0  0
   -1.0140    3.3910   -1.5600 H   0  0  0  0  0
   -5.8010   -2.0730    0.4440 H   0  0  0  0  0
   -1.8850   -1.7250    0.1260 H   0  0  0  0  0
    1.7910   -2.3820   -0.0880 H   0  0  0  0  0
   -5.0390   -4.7680    1.2690 H   0  0  0  0  0
  1  5  2  0  0  0
  2  3  2  0  0  0
  2  1  1  0  0  0
  3  4  1  0  0  0
  3 45  1  0  0  0
  4  6  2  0  0  0
  5  6  1  0  0  0
  6 36  1  0  0  0
  7 17  1  0  0  0
  7 46  1  0  0  0
  7 47  1  0  0  0
  7 48  1  0  0  0
  8 49  1  0  0  0
  8 50  1  0  0  0
  8 51  1  0  0  0
  9 52  1  0  0  0
  9 53  1  0  0  0
  9 54  1  0  0  0
 10 12  2  0  0  0
 10 11  1  0  0  0
 10 55  1  0  0  0
 11 13  2  0  0  0
 11 56  1  0  0  0
 12 30  1  0  0  0
 12 57  1  0  0  0
 13 33  1  0  0  0
 13 58  1  0  0  0
 14 31  2  0  0  0
 14 15  1  0  0  0
 14 59  1  0  0  0
 15 32  2  0  0  0
 15 60  1  0  0  0
 16 29  2  0  0  0
 16 61  1  0  0  0
 17 27  1  0  0  0
 17 62  1  0  0  0
 17 63  1  0  0  0
 18 64  1  0  0  0
 18 65  1  0  0  0
 19 66  1  0  0  0
 19 67  1  0  0  0
 20 18  1  0  0  0
 20 68  1  0  0  0
 20 69  1  0  0  0
 21 35  1  0  0  0
 21 19  1  0  0  0
 21 70  1  0  0  0
 21 71  1  0  0  0
 22 38  1  0  0  0
 22 72  1  0  0  0
 22 73  1  0  0  0
 23 38  1  0  0  0
 23 74  1  0  0  0
 23 75  1  0  0  0
 24 39  1  0  0  0
 24 22  1  0  0  0
 24 76  1  0  0  0
 24 77  1  0  0  0
 25 23  1  0  0  0
 25 78  1  0  0  0
 25 79  1  0  0  0
 26  2  1  0  0  0
 26 80  1  0  0  0
 26 81  1  0  0  0
 27 42  2  0  0  0
 27 37  1  0  0  0
 28 41  1  0  0  0
 29  8  1  0  0  0
 30 44  1  0  0  0
 30 33  2  0  0  0
 31 16  1  0  0  0
 32 29  1  0  0  0
 32 39  1  0  0  0
 33 40  1  0  0  0
 34 19  1  0  0  0
 34 37  1  0  0  0
 34 18  1  0  0  0
 34 82  1  0  0  0
 35 20  1  0  0  0
 35 83  1  0  0  0
 36 31  1  0  0  0
 36 84  1  0  0  0
 37 85  1  0  0  0
 38  9  1  0  0  0
 39 25  1  0  0  0
 40 26  1  0  0  0
 40 28  1  0  0  0
 41  1  1  0  0  0
 41 35  1  0  0  0
 43 28  2  0  0  0
M  END
$$$$
