@<TRIPOS>MOLECULE
9JO
44 49 0 0 0
SMALL
NO_CHARGES

@<TRIPOS>ATOM
     1 C4           0.8750    53.9390   -24.2940 C.ar     1 LIG 0.0000
     2 C5           1.5710    54.8470   -25.0340 C.ar     1 LIG 0.0000
     3 C6           2.3040    55.8040   -24.4070 C.ar     1 LIG 0.0000
     4 N1           2.3260    55.7950   -23.0650 N.ar     1 LIG 0.0000
     5 N3           0.9410    53.9640   -22.9820 N.ar     1 LIG 0.0000
     6 C2           1.6590    54.8930   -22.3870 C.ar     1 LIG 0.0000
     7 CAA         -2.7630    48.3860   -26.1040 C.ar     1 LIG 0.0000
     8 CAB          1.7280    53.4530   -16.7870 C.ar     1 LIG 0.0000
     9 CAC         -0.0340    48.3340   -14.7060 C.ar     1 LIG 0.0000
    10 CAG          0.7810    53.2320   -30.9850 C.ar     1 LIG 0.0000
    11 CAH         -0.3350    53.5980   -30.2810 C.ar     1 LIG 0.0000
    12 CAI          1.9570    53.0150   -30.3220 C.ar     1 LIG 0.0000
    13 CAJ         -0.2870    53.7460   -28.9220 C.ar     1 LIG 0.0000
    14 CAK          0.5790    53.0080   -20.6810 C.ar     1 LIG 0.0000
    15 CAL          0.1960    52.0630   -19.7450 C.ar     1 LIG 0.0000
    16 CAN          1.7190    54.2160   -18.9990 C.ar     1 LIG 0.0000
    17 CAO         -1.9910    47.2130   -25.5190 C.ar     1 LIG 0.0000
    18 CAP         -0.4320    49.8870   -23.1540 C.ar     1 LIG 0.0000
    19 CAQ         -2.5010    50.5480   -23.9010 C.ar     1 LIG 0.0000
    20 CAR          0.2930    50.8180   -23.9870 C.ar     1 LIG 0.0000
    21 CAS         -1.8610    51.6900   -24.6330 C.ar     1 LIG 0.0000
    22 CAT         -0.9250    49.3410   -16.6570 C.ar     1 LIG 0.0000
    23 CAU          1.2030    49.9230   -15.8490 C.ar     1 LIG 0.0000
    24 CAV         -0.9120    50.4980   -17.6030 C.ar     1 LIG 0.0000
    25 CAW          1.1300    51.2840   -16.3310 C.ar     1 LIG 0.0000
    26 CAX          1.5610    54.8450   -26.3920 C.ar     1 LIG 0.0000
    27 CBC         -2.2410    47.1350   -24.0350 C.ar     1 LIG 0.0000
    28 CBD          0.2430    52.8410   -26.1720 C.ar     1 LIG 0.0000
    29 CBE          1.3430    53.2890   -18.0800 C.ar     1 LIG 0.0000
    30 CBF          1.9970    53.1640   -28.9680 C.ar     1 LIG 0.0000
    31 CBG          1.3430    54.0720   -20.2930 C.ar     1 LIG 0.0000
    32 CBJ          0.5890    52.2130   -18.4380 C.ar     1 LIG 0.0000
    33 CBK          0.8760    53.5260   -28.2580 C.ar     1 LIG 0.0000
    34 CBM         -1.5340    49.4500   -23.9660 C.ar     1 LIG 0.0000
    35 CBN         -0.4990    52.0220   -24.0550 C.ar     1 LIG 0.0000
    36 NBA          1.7440    55.0040   -21.0950 N.ar     1 LIG 0.0000
    37 NBB         -2.0240    48.2400   -23.3480 N.ar     1 LIG 0.0000
    38 NBO         -0.1350    49.5730   -15.4600 N.ar     1 LIG 0.0000
    39 NBP          0.2660    51.3480   -17.4890 N.ar     1 LIG 0.0000
    40 NBQ          0.8820    53.6880   -26.9460 N.ar     1 LIG 0.0000
    41 NBR          0.1960    52.9880   -24.8730 N.ar     1 LIG 0.0000
    42 OAD         -2.6370    46.1030   -23.5270 O.2      1 LIG 0.0000
    43 OAE         -0.3300    51.9060   -26.6710 O.2      1 LIG 0.0000
    44 CL1          3.3200    52.9050   -28.2940 CL       1 LIG 0.0000
@<TRIPOS>BOND
     1   10   12 2
     2   10   11 1
     3   12   30 1
     4   11   13 2
     5   30   44 1
     6   30   33 2
     7   13   33 1
     8   33   40 1
     9   40   26 1
    10   40   28 1
    11   43   28 2
    12   26    2 1
    13   28   41 1
    14    7   17 1
    15   17   27 1
    16    2    3 2
    17    2    1 1
    18   41    1 1
    19   41   35 1
    20   21   35 1
    21   21   19 1
    22    3    4 1
    23    1    5 2
    24   35   20 1
    25   27   42 2
    26   27   37 1
    27   20   18 1
    28   34   19 1
    29   34   37 1
    30   34   18 1
    31    4    6 2
    32    5    6 1
    33    6   36 1
    34   36   31 1
    35   14   31 2
    36   14   15 1
    37   31   16 1
    38   15   32 2
    39   16   29 2
    40   32   29 1
    41   32   39 1
    42   29    8 1
    43   24   39 1
    44   24   22 1
    45   39   25 1
    46   22   38 1
    47   25   23 1
    48   23   38 1
    49   38    9 1
