9LL
  CCTOOLS-0919241038

 41 44  0  0  1  0  0  0  0  0999 V2000
   -1.0390   -0.5520   -0.6100 C   0  0  0  0  0
   -4.9350   -2.6200    0.5380 C   0  0  0  0  0
    3.1280   -0.9980    0.6280 C   0  0  0  0  0
    3.9780   -1.3430    1.6800 C   0  0  0  0  0
    5.1970   -1.9300    1.4130 C   0  0  0  0  0
    4.7440   -1.8400   -0.9420 C   0  0  0  0  0
    2.4040   -0.7740   -1.5730 C   0  0  0  0  0
    0.6490    2.7670   -1.0490 C   0  0  0  0  0
    0.5110    4.0370   -0.5090 C   0  0  0  0  0
   -0.3340    4.2420    0.5640 C   0  0  0  0  0
   -1.0430    3.1810    1.1010 C   0  0  0  0  0
   -0.9060    1.9120    0.5620 C   0  0  0  0  0
   -0.0620    1.7040   -0.5110 C   0  0  0  0  0
    0.0870    0.3240   -1.0970 C   0  0  0  0  0
   -3.3300   -1.1610   -0.6270 C   0  0  0  0  0
   -5.4330   -1.8830   -0.4560 C   0  0  0  0  0
    1.7900   -0.3770    0.5930 C   0  0  0  0  0
    5.5820   -2.1790    0.1080 C   0  0  0  0  0
    3.5260   -1.2540   -0.6870 C   0  0  0  0  0
   -1.8690    3.3830    2.1510 F   0  0  0  0  0
   -2.2710   -0.4220   -1.1410 N   0  0  0  0  0
   -4.5500   -1.1110   -1.0620 N   0  0  0  0  0
    1.3680   -0.2500   -0.6770 N   0  0  0  0  0
    1.4760    2.5650   -2.1090 O   0  0  0  0  0
   -0.8350   -1.3770    0.2540 O   0  0  0  0  0
    1.1590   -0.0310    1.5730 O   0  0  0  0  0
   -3.2160   -2.2620    0.6750 S   0  0  0  0  0
   -5.4900   -3.3120    1.1540 H   0  0  0  0  0
    3.6810   -1.1500    2.7010 H   0  0  0  0  0
    5.8550   -2.1960    2.2270 H   0  0  0  0  0
    5.0470   -2.0350   -1.9600 H   0  0  0  0  0
    2.7630    0.0110   -2.2390 H   0  0  0  0  0
    2.0050   -1.6050   -2.1550 H   0  0  0  0  0
    1.0640    4.8650   -0.9270 H   0  0  0  0  0
   -0.4420    5.2310    0.9850 H   0  0  0  0  0
   -1.4590    1.0850    0.9820 H   0  0  0  0  0
    0.0560    0.3860   -2.1840 H   0  0  0  0  0
   -6.4740   -1.9160   -0.7430 H   0  0  0  0  0
    6.5380   -2.6390   -0.0930 H   0  0  0  0  0
   -2.4190    0.1870   -1.8810 H   0  0  0  0  0
    1.0690    2.7470   -2.9670 H   0  0  0  0  0
  1 25  2  0  0  0
  2 28  1  0  0  0
  3 19  1  0  0  0
  4  3  2  0  0  0
  4  5  1  0  0  0
  4 29  1  0  0  0
  5 18  2  0  0  0
  5 30  1  0  0  0
  6 31  1  0  0  0
  7 19  1  0  0  0
  7 32  1  0  0  0
  7 33  1  0  0  0
  8 13  1  0  0  0
  9  8  2  0  0  0
  9 10  1  0  0  0
  9 34  1  0  0  0
 10 11  2  0  0  0
 10 35  1  0  0  0
 11 12  1  0  0  0
 11 20  1  0  0  0
 12 36  1  0  0  0
 13 14  1  0  0  0
 13 12  2  0  0  0
 14 23  1  0  0  0
 14  1  1  0  0  0
 14 37  1  0  0  0
 15 22  2  0  0  0
 15 27  1  0  0  0
 16  2  2  0  0  0
 16 38  1  0  0  0
 17 23  1  0  0  0
 17  3  1  0  0  0
 18  6  1  0  0  0
 18 39  1  0  0  0
 19  6  2  0  0  0
 21  1  1  0  0  0
 21 15  1  0  0  0
 21 40  1  0  0  0
 22 16  1  0  0  0
 23  7  1  0  0  0
 24  8  1  0  0  0
 24 41  1  0  0  0
 26 17  2  0  0  0
 27  2  1  0  0  0
M  END
$$$$
