@<TRIPOS>MOLECULE
9LL
27 30 0 0 0
SMALL
NO_CHARGES

@<TRIPOS>ATOM
     1 C10          5.6850    22.1280    12.4200 C.ar     1 LIG 0.0000
     2 C15          2.9640    23.6680    15.7510 C.ar     1 LIG 0.0000
     3 C20          7.2410    18.1060    11.4370 C.ar     1 LIG 0.0000
     4 C21          7.0750    16.7220    11.3540 C.ar     1 LIG 0.0000
     5 C22          8.1020    15.8860    11.7510 C.ar     1 LIG 0.0000
     6 C24          9.4540    17.7940    12.3120 C.ar     1 LIG 0.0000
     7 C26          8.3030    20.1680    11.8870 C.ar     1 LIG 0.0000
     8 C02          8.2860    22.9930     9.9400 C.ar     1 LIG 0.0000
     9 C03          9.2890    23.9340     9.8860 C.ar     1 LIG 0.0000
    10 C04          9.5830    24.6970    10.9970 C.ar     1 LIG 0.0000
    11 C05          8.8710    24.5190    12.1580 C.ar     1 LIG 0.0000
    12 C07          7.8710    23.5810    12.2120 C.ar     1 LIG 0.0000
    13 C08          7.5830    22.8150    11.1050 C.ar     1 LIG 0.0000
    14 C09          6.4660    21.7940    11.1780 C.ar     1 LIG 0.0000
    15 C12          3.6480    23.0930    13.4880 C.ar     1 LIG 0.0000
    16 C14          1.8640    23.7040    14.8660 C.ar     1 LIG 0.0000
    17 C19          6.3060    19.2650    11.0820 C.ar     1 LIG 0.0000
    18 C23          9.2920    16.4220    12.2300 C.ar     1 LIG 0.0000
    19 C25          8.4190    18.6380    11.9120 C.ar     1 LIG 0.0000
    20 F06          9.1540    25.2660    13.2530 F        1 LIG 0.0000
    21 N11          4.3900    22.7440    12.3080 N.ar     1 LIG 0.0000
    22 N13          2.2960    23.3620    13.5130 N.ar     1 LIG 0.0000
    23 N18          7.0020    20.4840    11.3710 N.ar     1 LIG 0.0000
    24 O01          7.9900    22.2220     8.8170 O.2      1 LIG 0.0000
    25 O17          6.1690    21.8890    13.4600 O.2      1 LIG 0.0000
    26 O27          5.2150    19.1750    10.6480 O.2      1 LIG 0.0000
    27 S16          4.2780    23.2700    14.9590 S.ar     1 LIG 0.0000
@<TRIPOS>BOND
     1   24    8 1
     2    9    8 2
     3    9   10 1
     4    8   13 1
     5   26   17 2
     6   10   11 2
     7   17   23 1
     8   17    3 1
     9   13   14 1
    10   13   12 2
    11   14   23 1
    12   14    1 1
    13    4    3 2
    14    4    5 1
    15   23    7 1
    16    3   19 1
    17    5   18 2
    18    7   19 1
    19   19    6 2
    20   11   12 1
    21   11   20 1
    22   18    6 1
    23   21    1 1
    24   21   15 1
    25    1   25 2
    26   15   22 2
    27   15   27 1
    28   22   16 1
    29   16    2 2
    30   27    2 1
