@<TRIPOS>MOLECULE
AEE
33 37 0 0 0
SMALL
NO_CHARGES

@<TRIPOS>ATOM
     1 CAQ        -50.6230    -0.5830   -12.5610 C.ar     1 LIG 0.0000
     2 CAO        -49.5610    -0.7780   -11.4520 C.ar     1 LIG 0.0000
     3 NBF        -49.3020    -2.2240   -11.1470 N.ar     1 LIG 0.0000
     4 CAN        -50.3550    -2.7930   -10.2580 C.ar     1 LIG 0.0000
     5 CAA        -50.5150    -1.9410    -8.9750 C.ar     1 LIG 0.0000
     6 CAP        -49.0080    -3.0800   -12.3420 C.ar     1 LIG 0.0000
     7 CAR        -49.7880    -2.7090   -13.6360 C.ar     1 LIG 0.0000
     8 NBG        -50.1890    -1.2670   -13.8070 N.ar     1 LIG 0.0000
     9 CAS        -49.1930    -0.4480   -14.5800 C.ar     1 LIG 0.0000
    10 CAX        -49.9080    -0.1170   -15.8880 C.ar     1 LIG 0.0000
    11 CAI        -50.9130     0.8550   -15.9060 C.ar     1 LIG 0.0000
    12 CAK        -51.5930     1.1200   -17.0980 C.ar     1 LIG 0.0000
    13 CAJ        -49.5910    -0.8370   -17.0350 C.ar     1 LIG 0.0000
    14 CAL        -50.2700    -0.5710   -18.2180 C.ar     1 LIG 0.0000
    15 CAY        -51.2600     0.4100   -18.2610 C.ar     1 LIG 0.0000
    16 CBA        -51.9420     0.6390   -19.4570 C.ar     1 LIG 0.0000
    17 NAW        -53.0900     1.3230   -19.5730 N.ar     1 LIG 0.0000
    18 CAM        -51.5900     0.1700   -20.6560 C.ar     1 LIG 0.0000
    19 C5         -52.4940     0.5780   -21.5400 C.ar     1 LIG 0.0000
    20 C4         -53.4470     1.3140   -20.8530 C.ar     1 LIG 0.0000
    21 N3         -54.4940     1.8370   -21.5270 N.ar     1 LIG 0.0000
    22 C2         -54.6330     1.6530   -22.8450 C.ar     1 LIG 0.0000
    23 N1         -53.7350     0.9560   -23.5300 N.ar     1 LIG 0.0000
    24 C6         -52.6520     0.4060   -22.9160 C.ar     1 LIG 0.0000
    25 NAV        -51.7500    -0.3020   -23.6120 N.ar     1 LIG 0.0000
    26 CBE        -52.1210    -0.8630   -24.9160 C.ar     1 LIG 0.0000
    27 CAB        -51.2500    -2.0690   -25.3010 C.ar     1 LIG 0.0000
    28 CAZ        -52.0290     0.2630   -25.9540 C.ar     1 LIG 0.0000
    29 CAG        -51.4470     1.5000   -25.5840 C.ar     1 LIG 0.0000
    30 CAD        -51.3600     2.5610   -26.4940 C.ar     1 LIG 0.0000
    31 CAC        -51.8640     2.3520   -27.7840 C.ar     1 LIG 0.0000
    32 CAE        -52.4400     1.1210   -28.1590 C.ar     1 LIG 0.0000
    33 CAH        -52.5420     0.0670   -27.2480 C.ar     1 LIG 0.0000
@<TRIPOS>BOND
     1    1    2 1
     2    1    8 1
     3    2    3 1
     4    3    4 1
     5    3    6 1
     6    4    5 1
     7    6    7 1
     8    7    8 1
     9    8    9 1
    10    9   10 1
    11   10   11 2
    12   10   13 1
    13   11   12 1
    14   12   15 2
    15   13   14 2
    16   14   15 1
    17   15   16 1
    18   16   17 1
    19   16   18 2
    20   17   20 1
    21   18   19 1
    22   19   20 2
    23   19   24 1
    24   20   21 1
    25   21   22 2
    26   22   23 1
    27   23   24 2
    28   24   25 1
    29   25   26 1
    30   26   27 1
    31   26   28 1
    32   28   29 2
    33   28   33 1
    34   29   30 1
    35   30   31 2
    36   31   32 1
    37   32   33 2
