AQ4
     RDKit          3D

 29 31  0  0  0  0  0  0  0  0999 V2000
   -7.4250    1.9760   -1.4710 C   0  0  0  0  0  0  0  0  0  0  0  0
   -6.7870    1.0930   -1.0320 C   0  0  0  0  0  0  0  0  0  0  0  0
   -6.0100    0.0160   -0.4960 C   0  0  0  0  0  0  0  0  0  0  0  0
   -4.6220    0.1190   -0.4350 C   0  0  0  0  0  0  0  0  0  0  0  0
   -3.8760   -0.9280    0.0860 C   0  0  0  0  0  0  0  0  0  0  0  0
   -2.4830   -0.8290    0.1500 N   0  0  0  0  0  0  0  0  0  0  0  0
   -1.8860    0.3980    0.3650 C   0  0  0  0  0  0  0  0  0  0  0  0
   -0.4800    0.5400    0.3170 C   0  0  0  0  0  0  0  0  0  0  0  0
    0.3660   -0.5440    0.0510 C   0  0  0  0  0  0  0  0  0  0  0  0
    1.7180   -0.3550    0.0150 C   0  0  0  0  0  0  0  0  0  0  0  0
    2.5380   -1.4080   -0.2420 O   0  0  0  0  0  0  0  0  0  0  0  0
    1.9160   -2.6760   -0.4640 C   0  0  0  0  0  0  0  0  0  0  0  0
    2.9910   -3.7300   -0.7350 C   0  0  0  0  0  0  0  0  0  0  0  0
    3.7950   -3.9030    0.4330 O   0  0  0  0  0  0  0  0  0  0  0  0
    4.8350   -4.8720    0.2850 C   0  0  0  0  0  0  0  0  0  0  0  0
    2.2700    0.9140    0.2410 C   0  0  0  0  0  0  0  0  0  0  0  0
    3.6180    1.0780    0.1990 O   0  0  0  0  0  0  0  0  0  0  0  0
    4.1190    2.3950    0.4370 C   0  0  0  0  0  0  0  0  0  0  0  0
    5.6460    2.3830    0.3500 C   0  0  0  0  0  0  0  0  0  0  0  0
    6.0450    2.0620   -0.9850 O   0  0  0  0  0  0  0  0  0  0  0  0
    7.4600    2.0240   -1.1750 C   0  0  0  0  0  0  0  0  0  0  0  0
    1.4600    1.9970    0.5030 C   0  0  0  0  0  0  0  0  0  0  0  0
    0.0710    1.8250    0.5450 C   0  0  0  0  0  0  0  0  0  0  0  0
   -0.7620    2.8480    0.7970 N   0  0  0  0  0  0  0  0  0  0  0  0
   -2.0590    2.6560    0.8290 C   0  0  0  0  0  0  0  0  0  0  0  0
   -2.6180    1.4760    0.6160 N   0  0  0  0  0  0  0  0  0  0  0  0
   -4.5130   -2.0740    0.5440 C   0  0  0  0  0  0  0  0  0  0  0  0
   -5.8900   -2.1760    0.4830 C   0  0  0  0  0  0  0  0  0  0  0  0
   -6.6420   -1.1380   -0.0280 C   0  0  0  0  0  0  0  0  0  0  0  0
  2  1  3  0
  3  2  1  0
  4  3  2  0
  5  4  1  0
  6  5  1  0
  6  7  1  0
  7 26  1  0
  8  7  2  0
  8 23  1  0
  9  8  1  0
 10  9  2  0
 10 16  1  0
 11 10  1  0
 12 11  1  0
 13 12  1  0
 14 13  1  0
 14 15  1  0
 16 22  2  0
 17 16  1  0
 18 17  1  0
 19 18  1  0
 19 20  1  0
 21 20  1  0
 22 23  1  0
 23 24  2  0
 24 25  1  0
 26 25  2  0
 27  5  2  0
 27 28  1  0
 28 29  2  0
 29  3  1  0
M  END
$$$$
