F62
  CCTOOLS-1004241120

 70 74  0  0  0  0  0  0  0  0999 V2000
   -2.0740    1.6320    0.1960 C   0  0  0  0  0
   -1.4270    2.7150   -0.4400 C   0  0  0  0  0
   -0.0320    2.6950   -0.5510 C   0  0  0  0  0
    0.6240    1.6610   -0.0560 N   0  0  0  0  0
   -1.3360    0.6350    0.6640 N   0  0  0  0  0
   -6.6460   -3.7160   -3.2050 C   0  0  0  0  0
   -6.9360   -3.4260   -1.9390 C   0  0  0  0  0
   -6.0990   -2.4760   -1.1920 C   0  0  0  0  0
   -5.1410   -1.9550   -1.7310 O   0  0  0  0  0
   -6.3930   -2.1820    0.0900 N   0  0  0  0  0
   -5.5520   -1.3410    0.8250 C   0  0  0  0  0
   -4.9170   -0.2750    0.2010 C   0  0  0  0  0
   -5.3550   -1.5660    2.1810 C   0  0  0  0  0
   -4.5250   -0.7350    2.9080 C   0  0  0  0  0
   -3.8870    0.3220    2.2890 C   0  0  0  0  0
   -4.0840    0.5570    0.9340 C   0  0  0  0  0
   -3.4420    1.6330    0.3080 N   0  0  0  0  0
   -4.1740    2.6530   -0.1730 C   0  0  0  0  0
   -5.3870    2.6190   -0.0540 O   0  0  0  0  0
   -3.5790    3.7590   -0.8100 C   0  0  0  0  0
   -2.2290    3.8180   -0.9590 C   0  0  0  0  0
   -1.5770    4.9950   -1.6380 C   0  0  0  0  0
   -0.0170    0.6590    0.5360 C   0  0  0  0  0
    0.7190   -0.3970    1.0360 N   0  0  0  0  0
    2.1090   -0.4330    0.8500 C   0  0  0  0  0
    2.7540   -1.6520    0.6490 C   0  0  0  0  0
    4.1260   -1.6860    0.4650 C   0  0  0  0  0
    2.0370   -2.8070    0.6340 O   0  0  0  0  0
    2.7630   -4.0190    0.4230 C   0  0  0  0  0
    2.8420    0.7440    0.8600 C   0  0  0  0  0
    4.2110    0.7090    0.6760 C   0  0  0  0  0
    4.8560   -0.5040    0.4810 C   0  0  0  0  0
    6.2430   -0.5370    0.2960 N   0  0  0  0  0
    6.8130    0.8160    0.3430 C   0  0  0  0  0
    8.3350    0.7310    0.2160 C   0  0  0  0  0
    8.6820    0.0600   -1.0450 N   0  0  0  0  0
   10.1380    0.0250   -1.2390 C   0  0  0  0  0
    8.1130   -1.2940   -1.0920 C   0  0  0  0  0
    6.5900   -1.2080   -0.9650 C   0  0  0  0  0
    0.4950    3.5070   -1.0310 H   0  0  0  0  0
   -7.2610   -4.4150   -3.7530 H   0  0  0  0  0
   -5.7960   -3.2540   -3.6830 H   0  0  0  0  0
   -7.7870   -3.8890   -1.4600 H   0  0  0  0  0
   -7.1880   -2.5540    0.5030 H   0  0  0  0  0
   -5.0710   -0.0950   -0.8530 H   0  0  0  0  0
   -5.8520   -2.3920    2.6680 H   0  0  0  0  0
   -4.3730   -0.9130    3.9630 H   0  0  0  0  0
   -3.2390    0.9700    2.8600 H   0  0  0  0  0
   -4.1970    4.5620   -1.1850 H   0  0  0  0  0
   -2.3430    5.7060   -1.9480 H   0  0  0  0  0
   -0.8900    5.4800   -0.9440 H   0  0  0  0  0
   -1.0260    4.6500   -2.5130 H   0  0  0  0  0
    0.2750   -1.1130    1.5150 H   0  0  0  0  0
    4.6270   -2.6290    0.3100 H   0  0  0  0  0
    2.0740   -4.8630    0.4330 H   0  0  0  0  0
    3.2700   -3.9760   -0.5420 H   0  0  0  0  0
    3.5010   -4.1430    1.2150 H   0  0  0  0  0
    2.3410    1.6890    1.0120 H   0  0  0  0  0
    4.7800    1.6270    0.6840 H   0  0  0  0  0
    6.4120    1.4090   -0.4790 H   0  0  0  0  0
    6.5530    1.2880    1.2910 H   0  0  0  0  0
    8.7580    1.7350    0.2220 H   0  0  0  0  0
    8.7390    0.1620    1.0540 H   0  0  0  0  0
   10.6020   -0.5170   -0.4160 H   0  0  0  0  0
   10.3670   -0.4760   -2.1800 H   0  0  0  0  0
   10.5250    1.0440   -1.2670 H   0  0  0  0  0
    8.3720   -1.7650   -2.0400 H   0  0  0  0  0
    8.5140   -1.8860   -0.2690 H   0  0  0  0  0
    6.1670   -2.2130   -0.9700 H   0  0  0  0  0
    6.1860   -0.6390   -1.8020 H   0  0  0  0  0
  1  5  2  0  0  0
  2  3  2  0  0  0
  2  1  1  0  0  0
  3  4  1  0  0  0
  3 40  1  0  0  0
  4 23  2  0  0  0
  5 23  1  0  0  0
  6  7  2  0  0  0
  6 41  1  0  0  0
  6 42  1  0  0  0
  7 43  1  0  0  0
  8  7  1  0  0  0
  8  9  2  0  0  0
 10  8  1  0  0  0
 10 44  1  0  0  0
 11 10  1  0  0  0
 11 13  2  0  0  0
 12 11  1  0  0  0
 12 45  1  0  0  0
 13 46  1  0  0  0
 14 13  1  0  0  0
 14 47  1  0  0  0
 15 14  2  0  0  0
 15 48  1  0  0  0
 16 12  2  0  0  0
 16 15  1  0  0  0
 17  1  1  0  0  0
 17 16  1  0  0  0
 18 17  1  0  0  0
 19 18  2  0  0  0
 20 21  2  0  0  0
 20 18  1  0  0  0
 20 49  1  0  0  0
 21  2  1  0  0  0
 22 21  1  0  0  0
 22 50  1  0  0  0
 22 51  1  0  0  0
 22 52  1  0  0  0
 23 24  1  0  0  0
 24 25  1  0  0  0
 24 53  1  0  0  0
 25 26  1  0  0  0
 26 28  1  0  0  0
 26 27  2  0  0  0
 27 54  1  0  0  0
 28 29  1  0  0  0
 29 55  1  0  0  0
 29 56  1  0  0  0
 29 57  1  0  0  0
 30 25  2  0  0  0
 30 31  1  0  0  0
 30 58  1  0  0  0
 31 32  2  0  0  0
 31 59  1  0  0  0
 32 27  1  0  0  0
 32 33  1  0  0  0
 33 34  1  0  0  0
 34 35  1  0  0  0
 34 60  1  0  0  0
 34 61  1  0  0  0
 35 62  1  0  0  0
 35 63  1  0  0  0
 36 35  1  0  0  0
 36 37  1  0  0  0
 37 64  1  0  0  0
 37 65  1  0  0  0
 37 66  1  0  0  0
 38 36  1  0  0  0
 38 67  1  0  0  0
 38 68  1  0  0  0
 39 33  1  0  0  0
 39 38  1  0  0  0
 39 69  1  0  0  0
 39 70  1  0  0  0
M  END
$$$$
