@<TRIPOS>MOLECULE
F62
39 43 0 0 0
SMALL
NO_CHARGES

@<TRIPOS>ATOM
     1 C4          -0.5850   -52.2950   123.2460 C.ar     1 LIG 0.0000
     2 C5          -1.1570   -53.2860   122.4780 C.ar     1 LIG 0.0000
     3 C6          -1.9300   -54.2390   123.1000 C.ar     1 LIG 0.0000
     4 N1          -2.0990   -54.1640   124.4610 N.ar     1 LIG 0.0000
     5 N3          -0.7730   -52.2710   124.5660 N.ar     1 LIG 0.0000
     6 CAR          6.3440   -51.1810   125.6800 C.ar     1 LIG 0.0000
     7 CAS          6.1010   -49.7030   125.9070 C.ar     1 LIG 0.0000
     8 CBE          4.6270   -49.4120   125.6910 C.ar     1 LIG 0.0000
     9 OAF          4.0080   -48.6990   126.4650 O.2      1 LIG 0.0000
    10 NBA          4.0800   -49.9800   124.6270 N.ar     1 LIG 0.0000
    11 CBG          2.7920   -49.7470   124.4280 C.ar     1 LIG 0.0000
    12 CAO          2.0710   -50.6260   123.6530 C.ar     1 LIG 0.0000
    13 CAJ          2.1480   -48.6500   124.9720 C.ar     1 LIG 0.0000
    14 CAI          0.7950   -48.4540   124.7280 C.ar     1 LIG 0.0000
    15 CAK          0.0720   -49.3470   123.9480 C.ar     1 LIG 0.0000
    16 CBJ          0.7300   -50.4340   123.4090 C.ar     1 LIG 0.0000
    17 NBS          0.1520   -51.3560   122.6590 N.ar     1 LIG 0.0000
    18 CBM          0.3790   -51.3650   121.3480 C.ar     1 LIG 0.0000
    19 OAG          1.0730   -50.4950   120.8470 O.2      1 LIG 0.0000
    20 CAQ         -0.1730   -52.3300   120.5330 C.ar     1 LIG 0.0000
    21 CBF         -0.9540   -53.3110   121.1040 C.ar     1 LIG 0.0000
    22 CAB         -1.5180   -54.2920   120.3100 C.ar     1 LIG 0.0000
    23 C2          -1.5250   -53.1930   125.1590 C.ar     1 LIG 0.0000
    24 NBB         -1.7310   -53.1890   126.4610 N.ar     1 LIG 0.0000
    25 CBK         -1.2350   -52.2300   127.2060 C.ar     1 LIG 0.0000
    26 CBL         -1.9330   -51.9750   128.3620 C.ar     1 LIG 0.0000
    27 CAP         -1.5240   -51.0100   129.2430 C.ar     1 LIG 0.0000
    28 OBC         -3.0330   -52.7200   128.5730 O.2      1 LIG 0.0000
    29 CAA         -3.5490   -52.4850   129.8710 C.ar     1 LIG 0.0000
    30 CAM         -0.0880   -51.5340   126.8970 C.ar     1 LIG 0.0000
    31 CAL          0.3350   -50.5530   127.7830 C.ar     1 LIG 0.0000
    32 CBI         -0.3810   -50.3000   128.9430 C.ar     1 LIG 0.0000
    33 NBR          0.0080   -49.3560   129.7920 N.ar     1 LIG 0.0000
    34 CAV         -0.9750   -48.8570   130.7700 C.ar     1 LIG 0.0000
    35 CAT         -0.3240   -48.2980   131.9970 C.ar     1 LIG 0.0000
    36 NBQ          0.7890   -47.4300   131.6330 N.ar     1 LIG 0.0000
    37 CAC          1.3340   -46.8510   132.8600 C.ar     1 LIG 0.0000
    38 CAU          1.8290   -48.2460   131.0150 C.ar     1 LIG 0.0000
    39 CAW          1.3630   -48.7980   129.6950 C.ar     1 LIG 0.0000
@<TRIPOS>BOND
     1   22   21 1
     2   20   21 2
     3   20   18 1
     4   19   18 2
     5   21    2 1
     6   18   17 1
     7    2    3 2
     8    2    1 1
     9   17    1 1
    10   17   16 1
    11    3    4 1
    12    1    5 2
    13   16   12 2
    14   16   15 1
    15   12   11 1
    16   15   14 2
    17   11   10 1
    18   11   13 2
    19    4   23 2
    20    5   23 1
    21   10    8 1
    22   14   13 1
    23   23   24 1
    24    6    7 2
    25    8    7 1
    26    8    9 2
    27   24   25 1
    28   30   25 2
    29   30   31 1
    30   25   26 1
    31   31   32 2
    32   26   28 1
    33   26   27 2
    34   28   29 1
    35   32   27 1
    36   32   33 1
    37   39   33 1
    38   39   38 1
    39   33   34 1
    40   34   35 1
    41   38   36 1
    42   36   35 1
    43   36   37 1
