@<TRIPOS>MOLECULE
HKI
40 43 0 0 0
SMALL
NO_CHARGES

@<TRIPOS>ATOM
     1 CAJ          1.6540    24.0130    52.9560 C.ar     1 LIG 0.0000
     2 CAL          1.4380    32.8040    50.9840 C.ar     1 LIG 0.0000
     3 CAK          0.7120    33.1510    49.8680 C.ar     1 LIG 0.0000
     4 CAO         -0.6920    25.3770    50.5860 C.ar     1 LIG 0.0000
     5 CAP         -0.3220    26.6740    50.2790 C.ar     1 LIG 0.0000
     6 CAN          1.5180    31.4700    51.3170 C.ar     1 LIG 0.0000
     7 CAS         -0.2430    20.2390    50.6080 C.ar     1 LIG 0.0000
     8 CAT          1.4860    18.6010    51.9670 C.ar     1 LIG 0.0000
     9 CAR          1.5860    24.7340    50.4600 C.ar     1 LIG 0.0000
    10 CAM          0.1010    32.1580    49.1370 C.ar     1 LIG 0.0000
    11 CAQ          2.4140    21.7490    53.2910 C.ar     1 LIG 0.0000
    12 CBL          1.5910    22.6310    52.6340 C.ar     1 LIG 0.0000
    13 CBR          0.6610    20.7900    51.4970 C.ar     1 LIG 0.0000
    14 CBQ          1.5360    19.9630    52.1990 C.ar     1 LIG 0.0000
    15 CBI          0.2560    24.3780    50.6770 C.ar     1 LIG 0.0000
    16 CBM         -0.2890    18.8740    50.3880 C.ar     1 LIG 0.0000
    17 CBP          0.6790    22.1640    51.7100 C.ar     1 LIG 0.0000
    18 CBN          1.0090    26.9990    50.0810 C.ar     1 LIG 0.0000
    19 CBO          0.5890    18.0550    51.0710 C.ar     1 LIG 0.0000
    20 CBJ          1.9850    26.0320    50.1740 C.ar     1 LIG 0.0000
    21 CBK          0.8740    30.5420    50.5260 C.ar     1 LIG 0.0000
    22 CBH         -2.5910    18.6340    49.7030 C.ar     1 LIG 0.0000
    23 CAA          1.4020    14.5190    51.1490 C.ar     1 LIG 0.0000
    24 CAB         -7.8310    18.6070    48.7490 C.ar     1 LIG 0.0000
    25 CAC         -7.7170    17.6040    46.6680 C.ar     1 LIG 0.0000
    26 CAV          0.9620    29.0940    50.8960 C.ar     1 LIG 0.0000
    27 CAX         -3.5540    17.6700    49.0670 C.ar     1 LIG 0.0000
    28 CBT         -5.0110    18.1230    49.1960 C.ar     1 LIG 0.0000
    29 CAY         -5.7260    17.7130    47.9130 C.ar     1 LIG 0.0000
    30 CAU          1.6900    16.0010    51.2810 C.ar     1 LIG 0.0000
    31 NAD          1.6220    25.1290    53.3000 N.ar     1 LIG 0.0000
    32 NBA          2.4160    20.4320    53.0930 N.ar     1 LIG 0.0000
    33 NAZ          0.1640    30.8560    49.4370 N.ar     1 LIG 0.0000
    34 NBC         -0.1760    23.0610    51.0220 N.ar     1 LIG 0.0000
    35 NBB         -1.2370    18.3410    49.4770 N.ar     1 LIG 0.0000
    36 NBU         -6.9590    18.4390    47.5950 N.ar     1 LIG 0.0000
    37 OAG         -3.0180    19.5790    50.3580 O.2      1 LIG 0.0000
    38 OBE          1.3970    28.2990    49.7800 O.2      1 LIG 0.0000
    39 OBD          0.5230    16.6890    50.8330 O.2      1 LIG 0.0000
    40 CLA          3.6570    26.4980    49.9210 CL       1 LIG 0.0000
@<TRIPOS>BOND
     1   25   36 1
     2   36   29 1
     3   36   24 1
     4   29   28 1
     5   27   28 1
     6   27   22 1
     7   10   33 2
     8   10    3 1
     9   33   21 1
    10   35   22 1
    11   35   16 1
    12   22   37 2
    13   38   18 1
    14   38   26 1
    15    3    2 2
    16   40   20 1
    17   18   20 2
    18   18    5 1
    19   20    9 1
    20    5    4 2
    21   16    7 2
    22   16   19 1
    23    9   15 2
    24   21   26 1
    25   21    6 2
    26    4   15 1
    27    7   13 1
    28   15   34 1
    29   39   19 1
    30   39   30 1
    31    2    6 1
    32   34   17 1
    33   19    8 2
    34   23   30 1
    35   13   17 2
    36   13   14 1
    37   17   12 1
    38    8   14 1
    39   14   32 2
    40   12    1 1
    41   12   11 2
    42    1   31 3
    43   32   11 1
