@<TRIPOS>MOLECULE
HYZ
33 37 0 0 0
SMALL
NO_CHARGES

@<TRIPOS>ATOM
     1 C1          14.7180    40.1160    97.0990 C.ar     1 LIG 0.0000
     2 C2          16.0310    40.2220    97.6320 C.ar     1 LIG 0.0000
     3 C3          16.8780    39.0760    97.6860 C.ar     1 LIG 0.0000
     4 N6          13.9670    33.2580    86.9490 N.ar     1 LIG 0.0000
     5 C7          17.3230    36.5580    97.2600 C.ar     1 LIG 0.0000
     6 C8          15.5850    33.7600    95.9940 C.ar     1 LIG 0.0000
     7 C9          16.0750    34.2210    94.7560 C.ar     1 LIG 0.0000
     8 C10         16.8400    35.3580    95.0700 C.ar     1 LIG 0.0000
     9 C11         17.5140    36.1290    94.0760 C.ar     1 LIG 0.0000
    10 C12         17.3900    35.7120    92.7350 C.ar     1 LIG 0.0000
    11 C13         16.6250    34.5740    92.3820 C.ar     1 LIG 0.0000
    12 C14         15.9650    33.8170    93.4030 C.ar     1 LIG 0.0000
    13 C15         14.1240    33.6450    88.2640 C.ar     1 LIG 0.0000
    14 C16         15.3910    33.7190    88.8960 C.ar     1 LIG 0.0000
    15 C19         16.6440    33.3950    88.1860 C.ar     1 LIG 0.0000
    16 C20         19.5090    31.9970    84.8580 C.ar     1 LIG 0.0000
    17 C21         18.1270    31.9340    85.5370 C.ar     1 LIG 0.0000
    18 C22         19.1670    31.5240    87.7400 C.ar     1 LIG 0.0000
    19 C24         20.5540    31.1900    85.6350 C.ar     1 LIG 0.0000
    20 C4          16.4190    37.8080    97.2090 C.ar     1 LIG 0.0000
    21 C5          15.0830    37.7300    96.6750 C.ar     1 LIG 0.0000
    22 C6          14.2560    38.8690    96.6250 C.ar     1 LIG 0.0000
    23 F1          13.0110    38.7560    96.1180 F        1 LIG 0.0000
    24 N1          16.7310    35.4930    96.4340 N.ar     1 LIG 0.0000
    25 N2          15.9710    34.5190    97.0190 N.ar     1 LIG 0.0000
    26 N3          16.5250    34.2480    91.0370 N.ar     1 LIG 0.0000
    27 N4          12.9540    33.9630    88.9110 N.ar     1 LIG 0.0000
    28 C17         15.3910    34.1200    90.2310 C.ar     1 LIG 0.0000
    29 N5          14.2120    34.4440    90.8920 N.ar     1 LIG 0.0000
    30 C18         13.0410    34.3520    90.2010 C.ar     1 LIG 0.0000
    31 N7          16.9000    32.2900    87.5590 N.ar     1 LIG 0.0000
    32 N8          18.1460    32.3440    86.9840 N.ar     1 LIG 0.0000
    33 C23         20.5730    31.5960    87.1120 C.ar     1 LIG 0.0000
@<TRIPOS>BOND
     1    1    2 2
     2   22    1 1
     3    2    3 1
     4    3   20 2
     5    4   13 1
     6   24    5 1
     7   20    5 1
     8    7    6 1
     9    6   25 2
    10   12    7 2
    11    7    8 1
    12    9    8 2
    13    8   24 1
    14   10    9 1
    15   11   10 2
    16   26   11 1
    17   11   12 1
    18   13   14 2
    19   13   27 1
    20   15   14 1
    21   14   28 1
    22   31   15 1
    23   16   17 1
    24   16   19 1
    25   17   32 1
    26   32   18 1
    27   33   18 1
    28   19   33 1
    29   20   21 1
    30   21   22 2
    31   23   22 1
    32   24   25 1
    33   28   26 1
    34   27   30 2
    35   28   29 2
    36   30   29 1
    37   32   31 1
