@<TRIPOS>MOLECULE
HZ6
23 25 0 0 0
SMALL
NO_CHARGES

@<TRIPOS>ATOM
     1 C16         49.6100    -4.8340    19.7620 C.ar     1 LIG 0.0000
     2 C17         49.4750    -5.5560    18.6150 C.ar     1 LIG 0.0000
     3 C22         54.3800     1.5380    22.7090 C.ar     1 LIG 0.0000
     4 N23         54.2210     1.6270    21.4100 N.ar     1 LIG 0.0000
     5 C20         49.6120    -2.3870    19.0050 C.ar     1 LIG 0.0000
     6 C18         50.9550    -6.4370    18.3970 C.ar     1 LIG 0.0000
     7 C13         49.5550    -1.5330    20.2710 C.ar     1 LIG 0.0000
     8 C11         51.1650    -0.4460    21.5330 C.ar     1 LIG 0.0000
     9 N15         49.6810    -3.5170    19.8430 N.ar     1 LIG 0.0000
    10 C14         49.8490    -2.7730    21.0100 C.ar     1 LIG 0.0000
    11 C02         53.1760     0.9980    20.8950 C.ar     1 LIG 0.0000
    12 C03         52.3090     0.3070    21.6660 C.ar     1 LIG 0.0000
    13 C04         52.5870     0.3000    23.0190 C.ar     1 LIG 0.0000
    14 C06         51.4710    -0.7290    24.9670 C.ar     1 LIG 0.0000
    15 C07         51.7430     0.4700    25.7670 C.ar     1 LIG 0.0000
    16 C08         50.1070    -1.1840    25.2460 C.ar     1 LIG 0.0000
    17 C09         52.4060    -1.8060    25.3350 C.ar     1 LIG 0.0000
    18 N01         53.0300     1.0800    19.6040 N.ar     1 LIG 0.0000
    19 N05         51.6240    -0.4280    23.5960 N.ar     1 LIG 0.0000
    20 N10         50.7690    -0.8720    22.7150 N.ar     1 LIG 0.0000
    21 N21         53.6350     0.9130    23.5840 N.ar     1 LIG 0.0000
    22 O12         50.5870    -0.6680    20.3380 O.2      1 LIG 0.0000
    23 O19         49.7350    -5.4330    20.7720 O.2      1 LIG 0.0000
@<TRIPOS>BOND
     1    1    2 1
     2    1    9 1
     3    1   23 2
     4    3    4 2
     5    3   21 1
     6    4   11 1
     7    5    7 1
     8    5    9 1
     9    7   10 1
    10    7   22 1
    11    8   12 1
    12    8   20 2
    13    8   22 1
    14    9   10 1
    15   11   12 2
    16   11   18 1
    17   12   13 1
    18   13   19 1
    19   13   21 2
    20   14   15 1
    21   14   16 1
    22   14   17 1
    23   14   19 1
    24   19   20 1
    25    2    6 1
