HZ6
  CCTOOLS-1004241129

 45 47  0  0  0  0  0  0  0  0999 V2000
   -5.0630    0.0390   -0.1420 C   0  0  0  0  0
   -5.6710    0.6310    1.1030 C   0  0  0  0  0
    4.5430   -1.6550    0.3080 C   0  0  0  0  0
    3.6780   -2.6530    0.2750 N   0  0  0  0  0
   -2.8610   -0.9040   -1.1640 C   0  0  0  0  0
   -7.1480    0.9410    0.8520 C   0  0  0  0  0
   -1.7170   -0.2400   -0.3770 C   0  0  0  0  0
    0.6390   -0.4510   -0.1350 C   0  0  0  0  0
   -3.7630   -0.3140   -0.1550 N   0  0  0  0  0
   -2.6680   -0.2660    0.8340 C   0  0  0  0  0
    2.3750   -2.4290    0.1350 C   0  0  0  0  0
    1.9360   -1.0990    0.0240 C   0  0  0  0  0
    2.8950   -0.0680    0.0650 C   0  0  0  0  0
    2.8230    2.4390   -0.0700 C   0  0  0  0  0
    3.8070    2.5430   -1.2370 C   0  0  0  0  0
    3.5660    2.6700    1.2470 C   0  0  0  0  0
    1.7290    3.4960   -0.2310 C   0  0  0  0  0
    1.4760   -3.4770    0.1010 N   0  0  0  0  0
    2.2160    1.1060   -0.0610 N   0  0  0  0  0
    0.8480    0.8390   -0.1810 N   0  0  0  0  0
    4.1790   -0.3950    0.2080 N   0  0  0  0  0
   -0.5660   -1.0730   -0.2220 O   0  0  0  0  0
   -5.7460   -0.1250   -1.1310 O   0  0  0  0  0
   -5.5830   -0.0800    1.9240 H   0  0  0  0  0
   -5.1460    1.5510    1.3610 H   0  0  0  0  0
    5.5920   -1.8830    0.4280 H   0  0  0  0  0
   -2.9980   -0.4990   -2.1660 H   0  0  0  0  0
   -2.8330   -1.9940   -1.1440 H   0  0  0  0  0
   -7.5880    1.3690    1.7530 H   0  0  0  0  0
   -7.2360    1.6520    0.0310 H   0  0  0  0  0
   -7.6730    0.0210    0.5940 H   0  0  0  0  0
   -1.4730    0.7650   -0.7210 H   0  0  0  0  0
   -2.5830   -1.1680    1.4400 H   0  0  0  0  0
   -2.6510    0.6490    1.4260 H   0  0  0  0  0
    4.5870    1.7890   -1.1220 H   0  0  0  0  0
    3.2780    2.3780   -2.1750 H   0  0  0  0  0
    4.2590    3.5340   -1.2440 H   0  0  0  0  0
    4.0180    3.6620    1.2400 H   0  0  0  0  0
    2.8650    2.5960    2.0780 H   0  0  0  0  0
    4.3460    1.9170    1.3610 H   0  0  0  0  0
    1.1990    3.3310   -1.1690 H   0  0  0  0  0
    1.0270    3.4220    0.6000 H   0  0  0  0  0
    2.1810    4.4880   -0.2380 H   0  0  0  0  0
    1.7930   -4.3910    0.1780 H   0  0  0  0  0
    0.5280   -3.3000   -0.0020 H   0  0  0  0  0
  1  2  1  0  0  0
  1  9  1  0  0  0
  1 23  2  0  0  0
  2  6  1  0  0  0
  2 24  1  0  0  0
  2 25  1  0  0  0
  3  4  2  0  0  0
  3 21  1  0  0  0
  3 26  1  0  0  0
  4 11  1  0  0  0
  5  7  1  0  0  0
  5  9  1  0  0  0
  5 27  1  0  0  0
  5 28  1  0  0  0
  6 29  1  0  0  0
  6 30  1  0  0  0
  6 31  1  0  0  0
  7 10  1  0  0  0
  7 22  1  0  0  0
  7 32  1  0  0  0
  8 12  1  0  0  0
  8 20  2  0  0  0
  8 22  1  0  0  0
  9 10  1  0  0  0
 10 33  1  0  0  0
 10 34  1  0  0  0
 11 12  2  0  0  0
 11 18  1  0  0  0
 12 13  1  0  0  0
 13 19  1  0  0  0
 13 21  2  0  0  0
 14 15  1  0  0  0
 14 16  1  0  0  0
 14 17  1  0  0  0
 14 19  1  0  0  0
 15 35  1  0  0  0
 15 36  1  0  0  0
 15 37  1  0  0  0
 16 38  1  0  0  0
 16 39  1  0  0  0
 16 40  1  0  0  0
 17 41  1  0  0  0
 17 42  1  0  0  0
 17 43  1  0  0  0
 18 44  1  0  0  0
 18 45  1  0  0  0
 19 20  1  0  0  0
M  END
$$$$
