HZ6
     RDKit          3D

 23 25  0  0  0  0  0  0  0  0999 V2000
   -5.0630    0.0390   -0.1420 C   0  0  0  0  0  0  0  0  0  0  0  0
   -5.6710    0.6310    1.1030 C   0  0  0  0  0  0  0  0  0  0  0  0
    4.5430   -1.6550    0.3080 C   0  0  0  0  0  0  0  0  0  0  0  0
    3.6780   -2.6530    0.2750 N   0  0  0  0  0  0  0  0  0  0  0  0
   -2.8610   -0.9040   -1.1640 C   0  0  0  0  0  0  0  0  0  0  0  0
   -7.1480    0.9410    0.8520 C   0  0  0  0  0  0  0  0  0  0  0  0
   -1.7170   -0.2400   -0.3770 C   0  0  0  0  0  0  0  0  0  0  0  0
    0.6390   -0.4510   -0.1350 C   0  0  0  0  0  0  0  0  0  0  0  0
   -3.7630   -0.3140   -0.1550 N   0  0  0  0  0  0  0  0  0  0  0  0
   -2.6680   -0.2660    0.8340 C   0  0  0  0  0  0  0  0  0  0  0  0
    2.3750   -2.4290    0.1350 C   0  0  0  0  0  0  0  0  0  0  0  0
    1.9360   -1.0990    0.0240 C   0  0  0  0  0  0  0  0  0  0  0  0
    2.8950   -0.0680    0.0650 C   0  0  0  0  0  0  0  0  0  0  0  0
    2.8230    2.4390   -0.0700 C   0  0  0  0  0  0  0  0  0  0  0  0
    3.8070    2.5430   -1.2370 C   0  0  0  0  0  0  0  0  0  0  0  0
    3.5660    2.6700    1.2470 C   0  0  0  0  0  0  0  0  0  0  0  0
    1.7290    3.4960   -0.2310 C   0  0  0  0  0  0  0  0  0  0  0  0
    1.4760   -3.4770    0.1010 N   0  0  0  0  0  0  0  0  0  0  0  0
    2.2160    1.1060   -0.0610 N   0  0  0  0  0  0  0  0  0  0  0  0
    0.8480    0.8390   -0.1810 N   0  0  0  0  0  0  0  0  0  0  0  0
    4.1790   -0.3950    0.2080 N   0  0  0  0  0  0  0  0  0  0  0  0
   -0.5660   -1.0730   -0.2220 O   0  0  0  0  0  0  0  0  0  0  0  0
   -5.7460   -0.1250   -1.1310 O   0  0  0  0  0  0  0  0  0  0  0  0
  1  2  1  0
  1  9  1  0
  1 23  2  0
  2  6  1  0
  3  4  2  0
  3 21  1  0
  4 11  1  0
  5  7  1  0
  5  9  1  0
  7 10  1  0
  7 22  1  0
  8 12  1  0
  8 20  2  0
  8 22  1  0
  9 10  1  0
 11 12  2  0
 11 18  1  0
 12 13  1  0
 13 19  1  0
 13 21  2  0
 14 15  1  0
 14 16  1  0
 14 17  1  0
 14 19  1  0
 19 20  1  0
M  END
$$$$
