IRE
  CCTOOLS-0919241034

 55 58  0  0  0  0  0  0  0  0999 V2000
   -6.0810   -3.1410    0.6400 C   0  0  0  0  0
   -7.5790   -3.3890    0.8390 C   0  0  0  0  0
   -8.2940   -2.8970   -0.2980 O   0  0  0  0  0
   -8.0950   -1.5020   -0.5430 C   0  0  0  0  0
   -6.6030   -1.2340   -0.7550 C   0  0  0  0  0
   -5.8530   -1.7050    0.4190 N   0  0  0  0  0
   -4.4200   -1.4150    0.2790 C   0  0  0  0  0
   -4.2020    0.0990    0.3000 C   0  0  0  0  0
   -2.7090    0.4010    0.1550 C   0  0  0  0  0
   -2.5050    1.8150    0.1750 O   0  0  0  0  0
   -1.2240    2.2560    0.0560 C   0  0  0  0  0
   -0.9610    3.6330    0.0690 C   0  0  0  0  0
    0.3280    4.1040   -0.0510 C   0  0  0  0  0
   -1.9880    4.5120    0.1990 O   0  0  0  0  0
   -1.6560    5.9020    0.2050 C   0  0  0  0  0
   -0.2070    1.3520   -0.0690 C   0  0  0  0  0
    1.1120    1.8050   -0.1920 C   0  0  0  0  0
    1.3850    3.1950   -0.1850 C   0  0  0  0  0
    2.6580    3.6030   -0.3050 N   0  0  0  0  0
    3.6270    2.7280   -0.4310 C   0  0  0  0  0
    3.4200    1.4210   -0.4470 N   0  0  0  0  0
    2.2010    0.9110   -0.3240 C   0  0  0  0  0
    1.9990   -0.4550   -0.3360 N   0  0  0  0  0
    3.0960   -1.3230   -0.3450 C   0  0  0  0  0
    4.2570   -0.9850    0.3370 C   0  0  0  0  0
    5.3390   -1.8450    0.3260 C   0  0  0  0  0
    6.7910   -1.4230    1.1790 CL  0  0  0  0  0
    5.2650   -3.0440   -0.3650 C   0  0  0  0  0
    6.3230   -3.8840   -0.3740 F   0  0  0  0  0
    4.1080   -3.3830   -1.0450 C   0  0  0  0  0
    3.0230   -2.5280   -1.0330 C   0  0  0  0  0
   -5.5380   -3.4620    1.5290 H   0  0  0  0  0
   -5.7310   -3.7030   -0.2250 H   0  0  0  0  0
   -7.7590   -4.4590    0.9470 H   0  0  0  0  0
   -7.9180   -2.8700    1.7350 H   0  0  0  0  0
   -8.6480   -1.2070   -1.4340 H   0  0  0  0  0
   -8.4490   -0.9280    0.3130 H   0  0  0  0  0
   -6.2600   -1.7660   -1.6430 H   0  0  0  0  0
   -6.4400   -0.1640   -0.8860 H   0  0  0  0  0
   -3.8750   -1.8720    1.1050 H   0  0  0  0  0
   -4.0570   -1.8220   -0.6650 H   0  0  0  0  0
   -4.7470    0.5560   -0.5250 H   0  0  0  0  0
   -4.5650    0.5050    1.2450 H   0  0  0  0  0
   -2.1640   -0.0560    0.9810 H   0  0  0  0  0
   -2.3460   -0.0050   -0.7890 H   0  0  0  0  0
    0.5220    5.1660   -0.0400 H   0  0  0  0  0
   -0.9830    6.1110    1.0370 H   0  0  0  0  0
   -1.1650    6.1620   -0.7330 H   0  0  0  0  0
   -2.5650    6.4930    0.3150 H   0  0  0  0  0
   -0.4200    0.2930   -0.0730 H   0  0  0  0  0
    4.6400    3.0900   -0.5250 H   0  0  0  0  0
    4.3140   -0.0510    0.8750 H   0  0  0  0  0
    4.0520   -4.3180   -1.5830 H   0  0  0  0  0
    2.1190   -2.7950   -1.5600 H   0  0  0  0  0
    1.0980   -0.8120   -0.3380 H   0  0  0  0  0
  1  2  1  0  0  0
  1  6  1  0  0  0
  1 32  1  0  0  0
  1 33  1  0  0  0
  2  3  1  0  0  0
  2 34  1  0  0  0
  2 35  1  0  0  0
  3  4  1  0  0  0
  4  5  1  0  0  0
  4 36  1  0  0  0
  4 37  1  0  0  0
  5  6  1  0  0  0
  5 38  1  0  0  0
  5 39  1  0  0  0
  6  7  1  0  0  0
  7  8  1  0  0  0
  7 40  1  0  0  0
  7 41  1  0  0  0
  8  9  1  0  0  0
  8 42  1  0  0  0
  8 43  1  0  0  0
  9 10  1  0  0  0
  9 44  1  0  0  0
  9 45  1  0  0  0
 10 11  1  0  0  0
 11 12  2  0  0  0
 11 16  1  0  0  0
 12 13  1  0  0  0
 12 14  1  0  0  0
 13 18  2  0  0  0
 13 46  1  0  0  0
 14 15  1  0  0  0
 15 47  1  0  0  0
 15 48  1  0  0  0
 15 49  1  0  0  0
 16 17  2  0  0  0
 16 50  1  0  0  0
 17 18  1  0  0  0
 17 22  1  0  0  0
 18 19  1  0  0  0
 19 20  2  0  0  0
 20 21  1  0  0  0
 20 51  1  0  0  0
 21 22  2  0  0  0
 22 23  1  0  0  0
 23 24  1  0  0  0
 23 55  1  0  0  0
 24 25  2  0  0  0
 24 31  1  0  0  0
 25 26  1  0  0  0
 25 52  1  0  0  0
 26 27  1  0  0  0
 26 28  2  0  0  0
 28 29  1  0  0  0
 28 30  1  0  0  0
 30 31  2  0  0  0
 30 53  1  0  0  0
 31 54  1  0  0  0
M  END
$$$$
