@<TRIPOS>MOLECULE
IRE
31 34 0 0 0
SMALL
NO_CHARGES

@<TRIPOS>ATOM
     1 CAO        -45.4800    -2.7160   -15.7450 C.ar     1 LIG 0.0000
     2 CAL        -44.4060    -3.5920   -15.0750 C.ar     1 LIG 0.0000
     3 OAU        -43.4570    -4.0220   -16.1080 O.2      1 LIG 0.0000
     4 CAM        -44.0750    -4.8660   -17.1340 C.ar     1 LIG 0.0000
     5 CAP        -45.2550    -4.1730   -17.8460 C.ar     1 LIG 0.0000
     6 NBE        -46.1310    -3.3930   -16.9140 N.ar     1 LIG 0.0000
     7 CAN        -46.7510    -2.3190   -17.7170 C.ar     1 LIG 0.0000
     8 CAJ        -48.2760    -2.4690   -17.8210 C.ar     1 LIG 0.0000
     9 CAK        -48.8310    -1.4830   -18.8750 C.ar     1 LIG 0.0000
    10 OAV        -49.1940    -0.1540   -18.3610 O.2      1 LIG 0.0000
    11 CBA        -50.2350     0.4780   -19.0000 C.ar     1 LIG 0.0000
    12 CAZ        -51.1310     1.2010   -18.2160 C.ar     1 LIG 0.0000
    13 CAH        -52.1950     1.8590   -18.8390 C.ar     1 LIG 0.0000
    14 OAT        -50.9480     1.2280   -16.8510 O.2      1 LIG 0.0000
    15 CAA        -51.1650     2.4870   -16.1950 C.ar     1 LIG 0.0000
    16 CAI        -50.3990     0.4370   -20.3940 C.ar     1 LIG 0.0000
    17 C5         -51.4580     1.1010   -21.0030 C.ar     1 LIG 0.0000
    18 C4         -52.3520     1.8070   -20.2220 C.ar     1 LIG 0.0000
    19 N3         -53.3700     2.4460   -20.8190 N.ar     1 LIG 0.0000
    20 C2         -53.5590     2.4110   -22.1310 C.ar     1 LIG 0.0000
    21 N1         -52.7310     1.7450   -22.9050 N.ar     1 LIG 0.0000
    22 C6         -51.6810     1.0850   -22.3780 C.ar     1 LIG 0.0000
    23 NAS        -50.8760     0.4060   -23.1830 N.ar     1 LIG 0.0000
    24 CAY        -50.9780     0.4720   -24.5090 C.ar     1 LIG 0.0000
    25 CAG        -50.9250     1.7140   -25.1330 C.ar     1 LIG 0.0000
    26 CAX        -51.0070     1.8060   -26.5120 C.ar     1 LIG 0.0000
    27 CL         -50.9430     3.3600   -27.2400 CL       1 LIG 0.0000
    28 CAW        -51.1410     0.6670   -27.2930 C.ar     1 LIG 0.0000
    29 FAB        -51.2180     0.7930   -28.6340 F        1 LIG 0.0000
    30 CAD        -51.1890    -0.5850   -26.6740 C.ar     1 LIG 0.0000
    31 CAE        -51.1030    -0.6820   -25.2800 C.ar     1 LIG 0.0000
@<TRIPOS>BOND
     1    1    2 1
     2    1    6 1
     3    2    3 1
     4    3    4 1
     5    4    5 1
     6    5    6 1
     7    6    7 1
     8    7    8 1
     9    8    9 1
    10    9   10 1
    11   10   11 1
    12   11   12 2
    13   11   16 1
    14   12   13 1
    15   12   14 1
    16   13   18 2
    17   14   15 1
    18   16   17 2
    19   17   18 1
    20   17   22 1
    21   18   19 1
    22   19   20 2
    23   20   21 1
    24   21   22 2
    25   22   23 1
    26   23   24 1
    27   24   25 2
    28   24   31 1
    29   25   26 1
    30   26   27 1
    31   26   28 2
    32   28   29 1
    33   28   30 1
    34   30   31 2
