@<TRIPOS>MOLECULE
KJ8
39 43 0 0 0
SMALL
NO_CHARGES

@<TRIPOS>ATOM
     1 C35        155.6730   120.1920   196.2610 C.ar     1 LIG 0.0000
     2 N32        154.3330   120.7330   196.5650 N.ar     1 LIG 0.0000
     3 C34        153.2940   119.8090   196.0690 C.ar     1 LIG 0.0000
     4 C31        154.1330   122.1350   196.1470 C.ar     1 LIG 0.0000
     5 C30        153.4990   122.9410   197.2770 C.ar     1 LIG 0.0000
     6 C29        152.1640   123.5670   196.7710 C.ar     1 LIG 0.0000
     7 O33        152.1110   124.0380   195.6440 O.2      1 LIG 0.0000
     8 N28        151.1450   123.6630   197.6740 N.ar     1 LIG 0.0000
     9 C26        149.9490   124.2320   197.3340 C.ar     1 LIG 0.0000
    10 C27        149.0610   124.5510   198.3820 C.ar     1 LIG 0.0000
    11 C25        149.5380   124.5230   196.0210 C.ar     1 LIG 0.0000
    12 C24        148.2850   125.0940   195.7960 C.ar     1 LIG 0.0000
    13 C23        147.4190   125.3870   196.8500 C.ar     1 LIG 0.0000
    14 C16        147.7970   125.1300   198.1740 C.ar     1 LIG 0.0000
    15 C1         146.9610   125.3930   199.2200 C.ar     1 LIG 0.0000
    16 C5         146.5090   124.4600   200.1160 C.ar     1 LIG 0.0000
    17 C2         146.3940   126.5800   199.5480 C.ar     1 LIG 0.0000
    18 C10        146.5280   127.8050   199.0400 C.ar     1 LIG 0.0000
    19 C11        147.5520   128.1700   198.1520 C.ar     1 LIG 0.0000
    20 C12        147.6440   129.4830   197.7040 C.ar     1 LIG 0.0000
    21 C13        146.7540   130.4470   198.1670 C.ar     1 LIG 0.0000
    22 C14        145.7640   130.1090   199.0800 C.ar     1 LIG 0.0000
    23 C15        145.6560   128.7960   199.5200 C.ar     1 LIG 0.0000
    24 O3         145.6290   126.4140   200.6270 O.ar     1 LIG 0.0000
    25 C4         145.6910   125.1240   200.9760 C.ar     1 LIG 0.0000
    26 N6         145.0710   124.5160   201.9980 N.ar     1 LIG 0.0000
    27 C7         145.2770   123.1540   202.2020 C.ar     1 LIG 0.0000
    28 N8         146.1150   122.4720   201.3340 N.ar     1 LIG 0.0000
    29 C9         146.7090   123.1240   200.3130 C.ar     1 LIG 0.0000
    30 N          147.4820   122.4160   199.4480 N.ar     1 LIG 0.0000
    31 CA         147.8220   120.9760   199.6370 C.ar     1 LIG 0.0000
    32 C          148.7770   120.5070   198.5660 C.ar     1 LIG 0.0000
    33 O          150.0700   121.0460   198.8070 O.2      1 LIG 0.0000
    34 C17        146.6880   120.1040   199.6130 C.ar     1 LIG 0.0000
    35 C18        145.4330   120.4960   199.1440 C.ar     1 LIG 0.0000
    36 C19        144.3500   119.6110   199.1490 C.ar     1 LIG 0.0000
    37 C20        144.4990   118.3090   199.6090 C.ar     1 LIG 0.0000
    38 C21        145.7420   117.9030   200.0660 C.ar     1 LIG 0.0000
    39 C22        146.8180   118.7910   200.0750 C.ar     1 LIG 0.0000
@<TRIPOS>BOND
     1    7    6 2
     2   12   11 2
     3   12   13 1
     4   11    9 1
     5    3    2 1
     6    4    2 1
     7    4    5 1
     8    1    2 1
     9    6    5 1
    10    6    8 1
    11   13   14 2
    12    9    8 1
    13    9   10 2
    14   20   19 2
    15   20   21 1
    16   19   18 1
    17   21   22 2
    18   14   10 1
    19   14   15 1
    20   32   33 1
    21   32   31 1
    22   18   23 2
    23   18   17 1
    24   22   23 1
    25   35   36 2
    26   35   34 1
    27   36   37 1
    28   15   17 2
    29   15   16 1
    30   30   31 1
    31   30   29 1
    32   17   24 1
    33   37   38 2
    34   34   31 1
    35   34   39 2
    36   38   39 1
    37   16   29 2
    38   16   25 1
    39   29   28 1
    40   24   25 1
    41   25   26 2
    42   28   27 2
    43   26   27 1
