@<TRIPOS>MOLECULE
KJQ
31 35 0 0 0
SMALL
NO_CHARGES

@<TRIPOS>ATOM
     1 C3         -52.7060     0.1530   -22.0870 C.ar     1 LIG 0.0000
     2 C2         -51.7920    -0.2730   -21.1710 C.ar     1 LIG 0.0000
     3 N8         -53.9750     0.6220   -24.0290 N.ar     1 LIG 0.0000
     4 C9         -54.8850     1.3640   -23.2920 C.ar     1 LIG 0.0000
     5 C6         -52.9210     0.0310   -23.4330 C.ar     1 LIG 0.0000
     6 C4         -53.5950     0.8790   -21.3710 C.ar     1 LIG 0.0000
     7 C1         -52.1610     0.2000   -19.9560 C.ar     1 LIG 0.0000
     8 C23        -52.9010    -0.2000   -27.8520 C.ar     1 LIG 0.0000
     9 C25        -52.9280     0.8140   -28.8070 C.ar     1 LIG 0.0000
    10 C27        -52.4840     2.0910   -28.4790 C.ar     1 LIG 0.0000
    11 C26        -52.0140     2.3450   -27.1940 C.ar     1 LIG 0.0000
    12 C24        -51.9760     1.3260   -26.2400 C.ar     1 LIG 0.0000
    13 C22        -52.4240     0.0350   -26.5560 C.ar     1 LIG 0.0000
    14 CA         -52.4240    -1.0470   -25.6260 C.ar     1 LIG 0.0000
    15 C          -51.4420    -2.1050   -26.1200 C.ar     1 LIG 0.0000
    16 O          -51.6530    -3.2570   -25.2920 O.2      1 LIG 0.0000
    17 N          -52.0700    -0.6560   -24.2260 N.ar     1 LIG 0.0000
    18 N7         -54.6630     1.4770   -21.9260 N.ar     1 LIG 0.0000
    19 O5         -53.2450     0.8810   -20.1220 O.ar     1 LIG 0.0000
    20 C10        -51.6490     0.0740   -18.7130 C.ar     1 LIG 0.0000
    21 C14        -50.7470    -0.9200   -18.3030 C.ar     1 LIG 0.0000
    22 C17        -50.3020    -0.9810   -16.9770 C.ar     1 LIG 0.0000
    23 C21        -50.7600    -0.0640   -16.0340 C.ar     1 LIG 0.0000
    24 C18        -51.6670     0.9170   -16.4210 C.ar     1 LIG 0.0000
    25 C15        -52.1100     0.9780   -17.7410 C.ar     1 LIG 0.0000
    26 C11        -50.7230    -1.0460   -21.4300 C.ar     1 LIG 0.0000
    27 C13        -49.4200    -0.5680   -21.2700 C.ar     1 LIG 0.0000
    28 C16        -48.3300    -1.4010   -21.5370 C.ar     1 LIG 0.0000
    29 C20        -48.5280    -2.7120   -21.9670 C.ar     1 LIG 0.0000
    30 C19        -49.8250    -3.1950   -22.1270 C.ar     1 LIG 0.0000
    31 C12        -50.9150    -2.3680   -21.8520 C.ar     1 LIG 0.0000
@<TRIPOS>BOND
     1    9   10 2
     2    9    8 1
     3   10   11 1
     4    8   13 2
     5   11   12 2
     6   13   12 1
     7   13   14 1
     8   15   14 1
     9   15   16 1
    10   14   17 1
    11   17    5 1
    12    3    5 2
    13    3    4 1
    14    5    1 1
    15    4   18 2
    16   30   29 2
    17   30   31 1
    18    1    6 2
    19    1    2 1
    20   29   28 1
    21   18    6 1
    22   31   26 2
    23   28   27 2
    24   26   27 1
    25   26    2 1
    26    6   19 1
    27    2    7 2
    28   19    7 1
    29    7   20 1
    30   20   21 2
    31   20   25 1
    32   21   22 1
    33   25   24 2
    34   22   23 2
    35   24   23 1
