KJQ
  CCTOOLS-0919241043

 52 56  0  0  1  0  0  0  0  0999 V2000
    0.5780   -1.6280    0.0840 C   0  0  0  0  0
    1.4190   -0.4270    0.0230 C   0  0  0  0  0
   -1.2110   -3.1450    0.1200 N   0  0  0  0  0
   -0.3450   -4.1330    0.2480 C   0  0  0  0  0
   -0.7990   -1.8820    0.0390 C   0  0  0  0  0
    1.4640   -2.7110    0.2130 C   0  0  0  0  0
    2.7090   -0.8730    0.1170 C   0  0  0  0  0
   -5.0230   -0.0850    1.1460 C   0  0  0  0  0
   -5.7250    1.0230    1.5830 C   0  0  0  0  0
   -5.3150    2.2910    1.2120 C   0  0  0  0  0
   -4.2050    2.4500    0.4050 C   0  0  0  0  0
   -3.5030    1.3410   -0.0320 C   0  0  0  0  0
   -3.9120    0.0740    0.3390 C   0  0  0  0  0
   -3.1440   -1.1340   -0.1320 C   0  0  0  0  0
   -3.5520   -1.4700   -1.5670 C   0  0  0  0  0
   -3.3700   -0.3210   -2.3960 O   0  0  0  0  0
   -1.7080   -0.8470   -0.0860 N   0  0  0  0  0
    0.9560   -3.9380    0.2900 N   0  0  0  0  0
    2.7140   -2.2170    0.2280 O   0  0  0  0  0
    3.9100   -0.0160    0.1000 C   0  0  0  0  0
    4.9170   -0.2000    1.0500 C   0  0  0  0  0
    6.0370    0.6050    1.0280 C   0  0  0  0  0
    6.1640    1.5930    0.0680 C   0  0  0  0  0
    5.1700    1.7810   -0.8770 C   0  0  0  0  0
    4.0480    0.9800   -0.8710 C   0  0  0  0  0
    0.9660    0.9760   -0.1130 C   0  0  0  0  0
    1.1430    1.8740    0.9390 C   0  0  0  0  0
    0.7190    3.1810    0.8060 C   0  0  0  0  0
    0.1190    3.6000   -0.3680 C   0  0  0  0  0
   -0.0580    2.7140   -1.4160 C   0  0  0  0  0
    0.3660    1.4070   -1.2970 C   0  0  0  0  0
   -0.7190   -5.1440    0.3110 H   0  0  0  0  0
   -5.3400   -1.0750    1.4400 H   0  0  0  0  0
   -6.5930    0.8990    2.2130 H   0  0  0  0  0
   -5.8640    3.1560    1.5520 H   0  0  0  0  0
   -3.8850    3.4400    0.1140 H   0  0  0  0  0
   -2.6350    1.4650   -0.6630 H   0  0  0  0  0
   -3.3660   -1.9810    0.5170 H   0  0  0  0  0
   -2.9340   -2.2880   -1.9390 H   0  0  0  0  0
   -4.6000   -1.7700   -1.5860 H   0  0  0  0  0
   -3.6090   -0.4620   -3.3220 H   0  0  0  0  0
   -1.3940    0.0690   -0.1450 H   0  0  0  0  0
    4.8190   -0.9700    1.8010 H   0  0  0  0  0
    6.8160    0.4640    1.7630 H   0  0  0  0  0
    7.0430    2.2200    0.0550 H   0  0  0  0  0
    5.2760    2.5540   -1.6240 H   0  0  0  0  0
    3.2760    1.1240   -1.6120 H   0  0  0  0  0
    1.6100    1.5480    1.8570 H   0  0  0  0  0
    0.8540    3.8770    1.6210 H   0  0  0  0  0
   -0.2120    4.6230   -0.4670 H   0  0  0  0  0
   -0.5270    3.0470   -2.3300 H   0  0  0  0  0
    0.2270    0.7160   -2.1160 H   0  0  0  0  0
  1  6  2  0  0  0
  1  2  1  0  0  0
  2  7  2  0  0  0
  3  5  2  0  0  0
  3  4  1  0  0  0
  4 18  2  0  0  0
  4 32  1  0  0  0
  5  1  1  0  0  0
  6 19  1  0  0  0
  7 20  1  0  0  0
  8 13  2  0  0  0
  8 33  1  0  0  0
  9 10  2  0  0  0
  9  8  1  0  0  0
  9 34  1  0  0  0
 10 11  1  0  0  0
 10 35  1  0  0  0
 11 12  2  0  0  0
 11 36  1  0  0  0
 12 37  1  0  0  0
 13 12  1  0  0  0
 13 14  1  0  0  0
 14 17  1  0  0  0
 14 38  1  0  0  0
 15 14  1  0  0  0
 15 16  1  0  0  0
 15 39  1  0  0  0
 15 40  1  0  0  0
 16 41  1  0  0  0
 17  5  1  0  0  0
 17 42  1  0  0  0
 18  6  1  0  0  0
 19  7  1  0  0  0
 20 21  2  0  0  0
 20 25  1  0  0  0
 21 22  1  0  0  0
 21 43  1  0  0  0
 22 23  2  0  0  0
 22 44  1  0  0  0
 23 45  1  0  0  0
 24 23  1  0  0  0
 24 46  1  0  0  0
 25 24  2  0  0  0
 25 47  1  0  0  0
 26 27  1  0  0  0
 26  2  1  0  0  0
 27 48  1  0  0  0
 28 27  2  0  0  0
 28 49  1  0  0  0
 29 28  1  0  0  0
 29 50  1  0  0  0
 30 29  2  0  0  0
 30 31  1  0  0  0
 30 51  1  0  0  0
 31 26  2  0  0  0
 31 52  1  0  0  0
M  END
$$$$
