@<TRIPOS>MOLECULE
KJR
35 39 0 0 0
SMALL
NO_CHARGES

@<TRIPOS>ATOM
     1 C24         50.0260    23.0730     6.6860 C.ar     1 LIG 0.0000
     2 C23         49.5430    22.3480     5.4260 C.ar     1 LIG 0.0000
     3 O25         48.5880    21.5740     5.4930 O.2      1 LIG 0.0000
     4 N22         50.2520    22.6420     4.3100 N.ar     1 LIG 0.0000
     5 C20         49.9530    22.1100     3.1040 C.ar     1 LIG 0.0000
     6 C21         51.0130    21.8170     2.2400 C.ar     1 LIG 0.0000
     7 C19         48.6450    21.8850     2.6520 C.ar     1 LIG 0.0000
     8 C18         48.4290    21.3560     1.3780 C.ar     1 LIG 0.0000
     9 C17         49.4990    21.0660     0.5280 C.ar     1 LIG 0.0000
    10 C16         50.8080    21.2990     0.9520 C.ar     1 LIG 0.0000
    11 C15         51.8760    21.0320     0.1690 C.ar     1 LIG 0.0000
    12 C1          52.7670    21.9520    -0.2920 C.ar     1 LIG 0.0000
    13 C14         52.2600    19.8170    -0.2660 C.ar     1 LIG 0.0000
    14 C26         51.7170    18.5950    -0.0900 C.ar     1 LIG 0.0000
    15 C27         50.9340    18.2360     1.0180 C.ar     1 LIG 0.0000
    16 C28         50.4150    16.9450     1.1340 C.ar     1 LIG 0.0000
    17 C29         50.6750    15.9900     0.1570 C.ar     1 LIG 0.0000
    18 C30         51.4570    16.3290    -0.9420 C.ar     1 LIG 0.0000
    19 C31         51.9750    17.6190    -1.0630 C.ar     1 LIG 0.0000
    20 O13         53.3460    19.9760    -0.9810 O.ar     1 LIG 0.0000
    21 C2          53.6730    21.2640    -1.0110 C.ar     1 LIG 0.0000
    22 N3          54.7080    21.8690    -1.6210 N.ar     1 LIG 0.0000
    23 C4          54.8700    23.2490    -1.5180 C.ar     1 LIG 0.0000
    24 N5          53.9380    23.9550    -0.7790 N.ar     1 LIG 0.0000
    25 C6          52.9280    23.3000    -0.1790 C.ar     1 LIG 0.0000
    26 N           52.0210    24.0090     0.5000 N.ar     1 LIG 0.0000
    27 CA          52.2610    25.3610     1.0540 C.ar     1 LIG 0.0000
    28 C           51.1360    25.6170     2.0440 C.ar     1 LIG 0.0000
    29 O           51.7850    26.1120     3.2120 O.2      1 LIG 0.0000
    30 C7          52.2810    26.3510     0.0410 C.ar     1 LIG 0.0000
    31 C8          51.7830    26.1210    -1.2540 C.ar     1 LIG 0.0000
    32 C9          51.8330    27.1180    -2.2290 C.ar     1 LIG 0.0000
    33 C10         52.3730    28.3620    -1.9200 C.ar     1 LIG 0.0000
    34 C11         52.8680    28.6000    -0.6390 C.ar     1 LIG 0.0000
    35 C12         52.8260    27.6010     0.3340 C.ar     1 LIG 0.0000
@<TRIPOS>BOND
     1   32   33 2
     2   32   31 1
     3   33   34 1
     4   22   23 2
     5   22   21 1
     6   23   24 1
     7   31   30 2
     8   19   18 2
     9   19   14 1
    10   21   20 1
    11   21   12 2
    12   20   13 1
    13   18   17 1
    14   24   25 2
    15   34   35 2
    16   12   25 1
    17   12   11 1
    18   13   14 1
    19   13   11 2
    20   25   26 1
    21   14   15 2
    22   30   35 1
    23   30   27 1
    24   17   16 2
    25   11   10 1
    26   26   27 1
    27    9   10 2
    28    9    8 1
    29   10    6 1
    30   15   16 1
    31   27   28 1
    32    8    7 2
    33   28   29 1
    34    6    5 2
    35    7    5 1
    36    5    4 1
    37    4    2 1
    38    2    3 2
    39    2    1 1
