@<TRIPOS>MOLECULE
KJV
40 44 0 0 0
SMALL
NO_CHARGES

@<TRIPOS>ATOM
     1 C35        -26.7360   -48.0110    -7.9210 C.ar     1 LIG 0.0000
     2 N34        -26.4660   -49.4550    -8.0070 N.ar     1 LIG 0.0000
     3 C36        -27.2270   -50.0130    -9.1360 C.ar     1 LIG 0.0000
     4 C33        -25.0120   -49.6800    -8.1880 C.ar     1 LIG 0.0000
     5 C32        -24.3630   -50.1710    -6.8890 C.ar     1 LIG 0.0000
     6 C31        -22.8430   -50.0140    -6.9330 C.ar     1 LIG 0.0000
     7 C29        -22.3710   -49.5790    -5.5370 C.ar     1 LIG 0.0000
     8 O30        -21.9280   -48.4440    -5.3580 O.2      1 LIG 0.0000
     9 N28        -22.5020   -50.5280    -4.5800 N.ar     1 LIG 0.0000
    10 C21        -22.1700   -50.2890    -3.2950 C.ar     1 LIG 0.0000
    11 C22        -21.9650   -51.3770    -2.4500 C.ar     1 LIG 0.0000
    12 C20        -22.0720   -48.9950    -2.7650 C.ar     1 LIG 0.0000
    13 C19        -21.7520   -48.8160    -1.4230 C.ar     1 LIG 0.0000
    14 C18        -21.5450   -49.9120    -0.5880 C.ar     1 LIG 0.0000
    15 C10        -21.6490   -51.2070    -1.0970 C.ar     1 LIG 0.0000
    16 C7         -21.4590   -52.2770    -0.3020 C.ar     1 LIG 0.0000
    17 C1         -22.4300   -53.1510     0.0770 C.ar     1 LIG 0.0000
    18 C8         -20.2980   -52.6620     0.2630 C.ar     1 LIG 0.0000
    19 C11        -19.0500   -52.1600     0.2010 C.ar     1 LIG 0.0000
    20 C23        -18.6110   -51.2790    -0.7990 C.ar     1 LIG 0.0000
    21 C24        -17.2920   -50.8190    -0.8130 C.ar     1 LIG 0.0000
    22 C25        -16.3880   -51.2480     0.1550 C.ar     1 LIG 0.0000
    23 C26        -16.8060   -52.1360     1.1410 C.ar     1 LIG 0.0000
    24 C27        -18.1230   -52.5910     1.1580 C.ar     1 LIG 0.0000
    25 O9         -20.5380   -53.7420     0.9600 O.ar     1 LIG 0.0000
    26 C2         -21.8100   -54.0550     0.8650 C.ar     1 LIG 0.0000
    27 N3         -22.4590   -55.0910     1.4260 N.ar     1 LIG 0.0000
    28 C4         -23.8190   -55.2580     1.2080 C.ar     1 LIG 0.0000
    29 N5         -24.4560   -54.3310     0.3990 N.ar     1 LIG 0.0000
    30 C6         -23.7660   -53.3120    -0.1530 C.ar     1 LIG 0.0000
    31 N          -24.4510   -52.4300    -0.9080 N.ar     1 LIG 0.0000
    32 CA         -25.8790   -52.6430    -1.2730 C.ar     1 LIG 0.0000
    33 C          -26.3680   -51.5350    -2.1850 C.ar     1 LIG 0.0000
    34 O          -25.3670   -51.4590    -3.2060 O.2      1 LIG 0.0000
    35 C12        -26.7360   -52.6930    -0.1480 C.ar     1 LIG 0.0000
    36 C13        -26.2830   -52.4990     1.1640 C.ar     1 LIG 0.0000
    37 C14        -27.1710   -52.5690     2.2340 C.ar     1 LIG 0.0000
    38 C15        -28.5210   -52.8220     2.0120 C.ar     1 LIG 0.0000
    39 C16        -28.9790   -53.0110     0.7120 C.ar     1 LIG 0.0000
    40 C17        -28.0900   -52.9470    -0.3600 C.ar     1 LIG 0.0000
@<TRIPOS>BOND
     1    3    2 1
     2    4    2 1
     3    4    5 1
     4    2    1 1
     5    6    5 1
     6    6    7 1
     7    7    8 2
     8    7    9 1
     9    9   10 1
    10   10   12 2
    11   10   11 1
    12   34   33 1
    13   12   13 1
    14   11   15 2
    15   33   32 1
    16   13   14 2
    17   32   31 1
    18   32   35 1
    19   15   14 1
    20   15   16 1
    21   31   30 1
    22   21   20 2
    23   21   22 1
    24   20   19 1
    25   40   35 2
    26   40   39 1
    27   16   17 1
    28   16   18 2
    29   30   17 2
    30   30   29 1
    31   35   36 1
    32   17   26 1
    33   22   23 2
    34   19   18 1
    35   19   24 2
    36   18   25 1
    37   29   28 2
    38   39   38 2
    39   26   25 1
    40   26   27 2
    41   23   24 1
    42   36   37 2
    43   28   27 1
    44   38   37 1
