@<TRIPOS>MOLECULE
M0R
30 33 0 0 0
SMALL
NO_CHARGES

@<TRIPOS>ATOM
     1 C12          1.1390   -53.4640    20.9900 C.ar     1 LIG 0.0000
     2 C13          0.4910   -52.6310    21.8660 C.ar     1 LIG 0.0000
     3 C17         -1.4590   -49.1380    20.3730 C.ar     1 LIG 0.0000
     4 C18         -2.9970   -49.3190    20.2140 C.ar     1 LIG 0.0000
     5 C20         -4.9010   -50.4510    21.0180 C.ar     1 LIG 0.0000
     6 C21         -5.4110   -50.4650    22.4910 C.ar     1 LIG 0.0000
     7 C23         -5.1800   -51.8570    24.3940 C.ar     1 LIG 0.0000
     8 C10          1.7160   -54.8800    22.7300 C.ar     1 LIG 0.0000
     9 C14         -0.1710   -51.4340    21.3870 C.ar     1 LIG 0.0000
    10 C29          1.1800   -53.1880    19.5970 C.ar     1 LIG 0.0000
    11 C30          0.6110   -52.3700    26.4270 C.ar     1 LIG 0.0000
    12 C15         -0.1300   -51.1590    20.0340 C.ar     1 LIG 0.0000
    13 C24         -4.1640   -52.1790    25.5680 C.ar     1 LIG 0.0000
    14 C26          0.5310   -52.0200    19.1460 C.ar     1 LIG 0.0000
    15 C28          1.2880   -52.5660    16.9670 C.ar     1 LIG 0.0000
    16 C02          0.3600   -52.5420    27.7810 C.ar     1 LIG 0.0000
    17 C03         -0.9220   -52.6390    28.3030 C.ar     1 LIG 0.0000
    18 C04         -1.9860   -52.5500    27.3830 C.ar     1 LIG 0.0000
    19 C05         -1.7600   -52.3810    26.0100 C.ar     1 LIG 0.0000
    20 C06         -0.4440   -52.2850    25.5040 C.ar     1 LIG 0.0000
    21 C08          0.4650   -52.9630    23.2600 C.ar     1 LIG 0.0000
    22 N07         -0.1920   -52.1200    24.1750 N.ar     1 LIG 0.0000
    23 N09          1.0880   -54.0970    23.6880 N.ar     1 LIG 0.0000
    24 N11          1.7840   -54.6370    21.4000 N.ar     1 LIG 0.0000
    25 O16         -0.7550   -50.0210    19.5270 O.2      1 LIG 0.0000
    26 O19         -3.4870   -50.3770    20.9930 O.2      1 LIG 0.0000
    27 O22         -4.5490   -51.2780    23.2760 O.2      1 LIG 0.0000
    28 O25         -2.8360   -52.3070    25.0830 O.2      1 LIG 0.0000
    29 O27          0.5380   -51.7140    17.8220 O.2      1 LIG 0.0000
    30 CL01         1.6970   -52.6470    28.8780 CL       1 LIG 0.0000
@<TRIPOS>BOND
     1   15   29 1
     2   29   14 1
     3   14   10 2
     4   14   12 1
     5   25   12 1
     6   25    3 1
     7   10    1 1
     8   12    9 2
     9    4    3 1
    10    4   26 1
    11    1   24 2
    12    1    2 1
    13   26    5 1
    14    5    6 1
    15    9    2 1
    16   24    8 1
    17    2   21 2
    18    6   27 1
    19    8   23 2
    20   21   23 1
    21   21   22 1
    22   27    7 1
    23   22   20 1
    24    7   13 1
    25   28   13 1
    26   28   19 1
    27   20   19 2
    28   20   11 1
    29   19   18 1
    30   11   16 2
    31   18   17 2
    32   16   17 1
    33   16   30 1
