M0R
  CCTOOLS-0919241032

 52 55  0  0  0  0  0  0  0  0999 V2000
   -1.6960   -2.9280   -0.1340 C   0  0  0  0  0
   -1.1100   -1.6390   -0.1290 C   0  0  0  0  0
   -3.6020    1.6550   -0.4330 C   0  0  0  0  0
   -3.1010    2.6480    0.6180 C   0  0  0  0  0
   -1.8340    4.6770    0.7930 C   0  0  0  0  0
   -0.6870    5.2540   -0.0390 C   0  0  0  0  0
    1.4820    4.3750   -0.5650 C   0  0  0  0  0
    0.4140   -3.8480   -0.2700 C   0  0  0  0  0
   -1.9200   -0.5020   -0.0120 C   0  0  0  0  0
   -3.0890   -3.0490   -0.0580 C   0  0  0  0  0
    3.0400   -1.3540    0.1000 C   0  0  0  0  0
   -3.2760   -0.6440    0.0800 C   0  0  0  0  0
    2.4090    3.2810   -0.0320 C   0  0  0  0  0
   -3.8650   -1.9150    0.0480 C   0  0  0  0  0
   -5.7580   -3.3530    0.0850 C   0  0  0  0  0
    4.4160   -1.2610    0.2240 C   0  0  0  0  0
    5.0510   -0.0480    0.0240 C   0  0  0  0  0
    4.3170    1.0770   -0.3070 C   0  0  0  0  0
    2.9410    0.9900   -0.4350 C   0  0  0  0  0
    2.3010   -0.2300   -0.2210 C   0  0  0  0  0
    0.2980   -1.5440   -0.2330 C   0  0  0  0  0
    0.8970   -0.2920   -0.3100 N   0  0  0  0  0
    1.0040   -2.6610   -0.2850 N   0  0  0  0  0
   -0.8880   -3.9980   -0.2060 N   0  0  0  0  0
   -4.0550    0.4620    0.2130 O   0  0  0  0  0
   -2.6440    3.8360   -0.0320 O   0  0  0  0  0
    0.5580    4.7580    0.4560 O   0  0  0  0  0
    2.2130    2.0830   -0.7840 O   0  0  0  0  0
   -5.2170   -2.0310    0.1220 O   0  0  0  0  0
    5.3460   -2.6700    0.6310 CL  0  0  0  0  0
   -4.4250    2.1010   -0.9910 H   0  0  0  0  0
   -2.7900    1.4100   -1.1170 H   0  0  0  0  0
   -3.9140    2.8970    1.3000 H   0  0  0  0  0
   -2.2800    2.2010    1.1780 H   0  0  0  0  0
   -1.4260    4.0930    1.6180 H   0  0  0  0  0
   -2.4410    5.4910    1.1890 H   0  0  0  0  0
   -0.8080    4.9560   -1.0810 H   0  0  0  0  0
   -0.6980    6.3420    0.0310 H   0  0  0  0  0
    2.0740    5.2410   -0.8620 H   0  0  0  0  0
    0.9330    3.9980   -1.4280 H   0  0  0  0  0
    1.0330   -4.7320   -0.3140 H   0  0  0  0  0
   -1.4740    0.4820    0.0060 H   0  0  0  0  0
   -3.5520   -4.0240   -0.0830 H   0  0  0  0  0
    2.5450   -2.3010    0.2530 H   0  0  0  0  0
    3.4450    3.6040   -0.1280 H   0  0  0  0  0
    2.1830    3.0920    1.0170 H   0  0  0  0  0
   -6.8450   -3.3030    0.1530 H   0  0  0  0  0
   -5.4740   -3.8360   -0.8500 H   0  0  0  0  0
   -5.3680   -3.9290    0.9240 H   0  0  0  0  0
    6.1230    0.0210    0.1270 H   0  0  0  0  0
    4.8170    2.0210   -0.4650 H   0  0  0  0  0
    0.3660    0.5130   -0.4210 H   0  0  0  0  0
  1 24  2  0  0  0
  1  2  1  0  0  0
  2 21  2  0  0  0
  3 31  1  0  0  0
  3 32  1  0  0  0
  4  3  1  0  0  0
  4 26  1  0  0  0
  4 33  1  0  0  0
  4 34  1  0  0  0
  5  6  1  0  0  0
  5 35  1  0  0  0
  5 36  1  0  0  0
  6 27  1  0  0  0
  6 37  1  0  0  0
  6 38  1  0  0  0
  7 13  1  0  0  0
  7 39  1  0  0  0
  7 40  1  0  0  0
  8 23  2  0  0  0
  8 41  1  0  0  0
  9  2  1  0  0  0
  9 42  1  0  0  0
 10  1  1  0  0  0
 10 43  1  0  0  0
 11 16  2  0  0  0
 11 44  1  0  0  0
 12  9  2  0  0  0
 13 45  1  0  0  0
 13 46  1  0  0  0
 14 10  2  0  0  0
 14 12  1  0  0  0
 15 29  1  0  0  0
 15 47  1  0  0  0
 15 48  1  0  0  0
 15 49  1  0  0  0
 16 17  1  0  0  0
 16 30  1  0  0  0
 17 50  1  0  0  0
 18 17  2  0  0  0
 18 51  1  0  0  0
 19 18  1  0  0  0
 20 19  2  0  0  0
 20 11  1  0  0  0
 21 23  1  0  0  0
 21 22  1  0  0  0
 22 20  1  0  0  0
 22 52  1  0  0  0
 24  8  1  0  0  0
 25 12  1  0  0  0
 25  3  1  0  0  0
 26  5  1  0  0  0
 27  7  1  0  0  0
 28 13  1  0  0  0
 28 19  1  0  0  0
 29 14  1  0  0  0
M  END
$$$$
