M19
     RDKit          3D

 23 25  0  0  0  0  0  0  0  0999 V2000
   -0.4030   -0.1170    0.2230 C   0  0  0  0  0  0  0  0  0  0  0  0
    1.7990    0.8390    0.0300 C   0  0  0  0  0  0  0  0  0  0  0  0
    2.3660   -0.3950   -0.2470 C   0  0  0  0  0  0  0  0  0  0  0  0
    3.7420   -0.5370   -0.2600 C   0  0  0  0  0  0  0  0  0  0  0  0
    4.5550    0.5530    0.0040 C   0  0  0  0  0  0  0  0  0  0  0  0
   -3.8000    1.2370   -0.3330 C   0  0  0  0  0  0  0  0  0  0  0  0
   -4.5730    0.0830   -0.1410 C   0  0  0  0  0  0  0  0  0  0  0  0
   -6.6560   -1.0580   -0.0510 C   0  0  0  0  0  0  0  0  0  0  0  0
   -3.9770   -1.1200    0.1680 C   0  0  0  0  0  0  0  0  0  0  0  0
   -2.5830   -1.1880    0.2900 C   0  0  0  0  0  0  0  0  0  0  0  0
   -0.6470   -2.3660    0.7030 C   0  0  0  0  0  0  0  0  0  0  0  0
    3.9940    1.7880    0.2820 C   0  0  0  0  0  0  0  0  0  0  0  0
    2.6170    1.9350    0.2960 C   0  0  0  0  0  0  0  0  0  0  0  0
   -1.8090   -0.0170    0.0930 C   0  0  0  0  0  0  0  0  0  0  0  0
   -2.4400    1.1930   -0.2200 C   0  0  0  0  0  0  0  0  0  0  0  0
    5.8990    0.4100   -0.0080 F   0  0  0  0  0  0  0  0  0  0  0  0
   -1.9540   -2.3340    0.5900 N   0  0  0  0  0  0  0  0  0  0  0  0
    0.1170   -1.3010    0.5230 N   0  0  0  0  0  0  0  0  0  0  0  0
    0.4050    0.9860    0.0380 N   0  0  0  0  0  0  0  0  0  0  0  0
   -4.4120    2.4120   -0.6380 O   0  0  0  0  0  0  0  0  0  0  0  0
   -5.9240    0.1520   -0.2590 O   0  0  0  0  0  0  0  0  0  0  0  0
    2.0650    3.1480    0.5690 O   0  0  0  0  0  0  0  0  0  0  0  0
    4.4510   -2.0830   -0.6080 Cl  0  0  0  0  0  0  0  0  0  0  0  0
  1 18  1  0
  1 19  1  0
  2  3  2  0
  2 13  1  0
  3  4  1  0
  4 23  1  0
  4  5  2  0
  5 16  1  0
  6 15  2  0
  7  9  2  0
  7  6  1  0
  8 21  1  0
  9 10  1  0
 10 17  2  0
 10 14  1  0
 11 18  2  0
 12  5  1  0
 13 12  2  0
 14  1  2  0
 15 14  1  0
 17 11  1  0
 19  2  1  0
 20  6  1  0
 21  7  1  0
 22 13  1  0
M  END
$$$$
