@<TRIPOS>MOLECULE
M19
23 25 0 0 0
SMALL
NO_CHARGES

@<TRIPOS>ATOM
     1 C11         52.9260     0.5320    23.1230 C.ar     1 LIG 0.0000
     2 C13         52.2640    -0.0490    25.5970 C.ar     1 LIG 0.0000
     3 C14         52.3160     1.2120    26.2070 C.ar     1 LIG 0.0000
     4 C15         52.4490     1.3770    27.5900 C.ar     1 LIG 0.0000
     5 C17         52.5410     0.2340    28.4890 C.ar     1 LIG 0.0000
     6 C02         51.0840    -0.0560    19.8040 C.ar     1 LIG 0.0000
     7 C03         51.9350     0.6770    18.9120 C.ar     1 LIG 0.0000
     8 C05         52.3250     1.7480    16.7680 C.ar     1 LIG 0.0000
     9 C06         53.0650     1.3280    19.4190 C.ar     1 LIG 0.0000
    10 C07         53.3740     1.2780    20.8110 C.ar     1 LIG 0.0000
    11 C09         54.8150     1.8740    22.5990 C.ar     1 LIG 0.0000
    12 C19         52.4940    -1.0510    27.8380 C.ar     1 LIG 0.0000
    13 C20         52.3660    -1.1800    26.4450 C.ar     1 LIG 0.0000
    14 C22         52.5500     0.5610    21.7040 C.ar     1 LIG 0.0000
    15 C23         51.3920    -0.1080    21.1710 C.ar     1 LIG 0.0000
    16 F18         52.6630     0.3820    29.7900 F        1 LIG 0.0000
    17 N08         54.5110     1.9440    21.2600 N.ar     1 LIG 0.0000
    18 N10         54.0290     1.1890    23.5410 N.ar     1 LIG 0.0000
    19 N12         52.1360    -0.1860    24.1370 N.ar     1 LIG 0.0000
    20 O01         49.9330    -0.7280    19.3480 O.2      1 LIG 0.0000
    21 O04         51.6140     0.7330    17.5350 O.2      1 LIG 0.0000
    22 O21         52.3310    -2.4200    25.8140 O.2      1 LIG 0.0000
    23 CL16        52.5040     2.9600    28.3560 CL       1 LIG 0.0000
@<TRIPOS>BOND
     1    8   21 1
     2   21    7 1
     3    7    9 2
     4    7    6 1
     5   20    6 1
     6    9   10 1
     7    6   15 2
     8   10   17 2
     9   10   14 1
    10   15   14 1
    11   17   11 1
    12   14    1 2
    13   11   18 2
    14    1   18 1
    15    1   19 1
    16   19    2 1
    17    2    3 2
    18    2   13 1
    19   22   13 1
    20    3    4 1
    21   13   12 2
    22    4   23 1
    23    4    5 2
    24   12    5 1
    25    5   16 1
