NQ1
     RDKit          3D

 24 27  0  0  0  0  0  0  0  0999 V2000
    2.0650   -1.1260    0.3600 C   0  0  0  0  0  0  0  0  0  0  0  0
    3.1380   -1.7170    1.0360 C   0  0  0  0  0  0  0  0  0  0  0  0
    4.3970   -1.7010    0.4770 C   0  0  0  0  0  0  0  0  0  0  0  0
    4.6100   -1.1050   -0.7550 C   0  0  0  0  0  0  0  0  0  0  0  0
    3.5650   -0.5030   -1.4270 C   0  0  0  0  0  0  0  0  0  0  0  0
    0.7180   -1.1810    0.9380 C   0  0  0  0  0  0  0  0  0  0  0  0
   -0.5680    2.1570    1.0110 C   0  0  0  0  0  0  0  0  0  0  0  0
   -0.4860    3.4200    0.4510 C   0  0  0  0  0  0  0  0  0  0  0  0
    0.1430    3.6000   -0.7690 C   0  0  0  0  0  0  0  0  0  0  0  0
    0.7010    2.5170   -1.4220 C   0  0  0  0  0  0  0  0  0  0  0  0
    0.6330    1.2510   -0.8590 C   0  0  0  0  0  0  0  0  0  0  0  0
   -0.0200    1.0610    0.3530 C   0  0  0  0  0  0  0  0  0  0  0  0
    2.2940   -0.4930   -0.8690 C   0  0  0  0  0  0  0  0  0  0  0  0
   -1.4710   -0.4910    1.5320 C   0  0  0  0  0  0  0  0  0  0  0  0
   -2.4160   -1.0440    0.4960 C   0  0  0  0  0  0  0  0  0  0  0  0
   -2.5620   -2.4110    0.3540 C   0  0  0  0  0  0  0  0  0  0  0  0
   -3.4280   -2.9180   -0.5960 C   0  0  0  0  0  0  0  0  0  0  0  0
   -4.1490   -2.0590   -1.4040 C   0  0  0  0  0  0  0  0  0  0  0  0
   -4.0030   -0.6910   -1.2620 C   0  0  0  0  0  0  0  0  0  0  0  0
   -3.1400   -0.1840   -0.3070 C   0  0  0  0  0  0  0  0  0  0  0  0
   -1.0200    4.4790    1.0970 F   0  0  0  0  0  0  0  0  0  0  0  0
    1.2600    0.1790   -1.5100 N   0  0  0  0  0  0  0  0  0  0  0  0
   -0.1760   -0.2060    0.9100 N   0  0  0  0  0  0  0  0  0  0  0  0
    0.3940   -2.2150    1.4900 O   0  0  0  0  0  0  0  0  0  0  0  0
  1  6  1  0
  1  2  2  0
  3  2  1  0
  4  3  2  0
  5 13  2  0
  5  4  1  0
  6 23  1  0
  7  8  2  0
  8 21  1  0
  9  8  1  0
 10  9  2  0
 11 10  1  0
 11 12  2  0
 12  7  1  0
 13  1  1  0
 14 15  1  0
 15 16  2  0
 16 17  1  0
 18 17  2  0
 19 18  1  0
 20 15  1  0
 20 19  2  0
 22 13  1  0
 22 11  1  0
 23 14  1  0
 23 12  1  0
 24  6  2  0
M  END
$$$$
