@<TRIPOS>MOLECULE
NQ1
24 27 0 0 0
SMALL
NO_CHARGES

@<TRIPOS>ATOM
     1 C10        -40.5650   -10.7390    45.1840 C.ar     1 LIG 0.0000
     2 C11        -40.9960   -12.0400    45.5580 C.ar     1 LIG 0.0000
     3 C12        -40.1250   -13.1180    45.3850 C.ar     1 LIG 0.0000
     4 C13        -38.8490   -12.9190    44.8380 C.ar     1 LIG 0.0000
     5 C14        -38.4450   -11.6440    44.4510 C.ar     1 LIG 0.0000
     6 C15        -41.5560    -9.5620    45.3430 C.ar     1 LIG 0.0000
     7 C01        -39.6330    -6.6800    46.9160 C.ar     1 LIG 0.0000
     8 C02        -38.3620    -6.1740    47.1740 C.ar     1 LIG 0.0000
     9 C04        -37.2500    -6.6600    46.4670 C.ar     1 LIG 0.0000
    10 C05        -37.3990    -7.6540    45.5010 C.ar     1 LIG 0.0000
    11 C06        -38.7040    -8.1530    45.2390 C.ar     1 LIG 0.0000
    12 C07        -39.7870    -7.6970    45.9350 C.ar     1 LIG 0.0000
    13 C09        -39.3340   -10.5560    44.6220 C.ar     1 LIG 0.0000
    14 C18        -42.1850    -7.2020    45.7180 C.ar     1 LIG 0.0000
    15 C19        -43.0280    -7.0240    46.9740 C.ar     1 LIG 0.0000
    16 C20        -42.8100    -7.7470    48.1340 C.ar     1 LIG 0.0000
    17 C21        -43.6240    -7.5190    49.2350 C.ar     1 LIG 0.0000
    18 C22        -44.6420    -6.5790    49.1760 C.ar     1 LIG 0.0000
    19 C23        -44.8520    -5.8540    48.0150 C.ar     1 LIG 0.0000
    20 C24        -44.0430    -6.0820    46.9150 C.ar     1 LIG 0.0000
    21 F03        -38.2030    -5.2020    48.1180 F        1 LIG 0.0000
    22 N08        -38.8410    -9.2220    44.2280 N.ar     1 LIG 0.0000
    23 N17        -41.1380    -8.2140    45.6780 N.ar     1 LIG 0.0000
    24 O16        -42.6970    -9.7800    45.1380 O.2      1 LIG 0.0000
@<TRIPOS>BOND
     1   22   13 1
     2   22   11 1
     3    5   13 2
     4    5    4 1
     5   13    1 1
     6    4    3 2
     7   24    6 2
     8    1    6 1
     9    1    2 2
    10   11   10 2
    11   11   12 1
    12    6   23 1
    13    3    2 1
    14   10    9 1
    15   23   14 1
    16   23   12 1
    17   14   15 1
    18   12    7 2
    19    9    8 2
    20   20   15 2
    21   20   19 1
    22    7    8 1
    23   15   16 1
    24    8   21 1
    25   19   18 2
    26   16   17 2
    27   18   17 1
