NQ1
  CCTOOLS-0919241041

 39 42  0  0  0  0  0  0  0  0999 V2000
    2.0650   -1.1260    0.3600 C   0  0  0  0  0
    3.1380   -1.7170    1.0360 C   0  0  0  0  0
    4.3970   -1.7010    0.4770 C   0  0  0  0  0
    4.6100   -1.1050   -0.7550 C   0  0  0  0  0
    3.5650   -0.5030   -1.4270 C   0  0  0  0  0
    0.7180   -1.1810    0.9380 C   0  0  0  0  0
   -0.5680    2.1570    1.0110 C   0  0  0  0  0
   -0.4860    3.4200    0.4510 C   0  0  0  0  0
    0.1430    3.6000   -0.7690 C   0  0  0  0  0
    0.7010    2.5170   -1.4220 C   0  0  0  0  0
    0.6330    1.2510   -0.8590 C   0  0  0  0  0
   -0.0200    1.0610    0.3530 C   0  0  0  0  0
    2.2940   -0.4930   -0.8690 C   0  0  0  0  0
   -1.4710   -0.4910    1.5320 C   0  0  0  0  0
   -2.4160   -1.0440    0.4960 C   0  0  0  0  0
   -2.5620   -2.4110    0.3540 C   0  0  0  0  0
   -3.4280   -2.9180   -0.5960 C   0  0  0  0  0
   -4.1490   -2.0590   -1.4040 C   0  0  0  0  0
   -4.0030   -0.6910   -1.2620 C   0  0  0  0  0
   -3.1400   -0.1840   -0.3070 C   0  0  0  0  0
   -1.0200    4.4790    1.0970 F   0  0  0  0  0
    1.2600    0.1790   -1.5100 N   0  0  0  0  0
   -0.1760   -0.2060    0.9100 N   0  0  0  0  0
    0.3940   -2.2150    1.4900 O   0  0  0  0  0
    2.9780   -2.1860    1.9950 H   0  0  0  0  0
    5.2240   -2.1560    1.0040 H   0  0  0  0  0
    5.5980   -1.1110   -1.1910 H   0  0  0  0  0
    3.7370   -0.0410   -2.3880 H   0  0  0  0  0
   -1.0590    2.0220    1.9630 H   0  0  0  0  0
    0.1960    4.5850   -1.2090 H   0  0  0  0  0
    1.1920    2.6570   -2.3740 H   0  0  0  0  0
   -1.8850    0.4280    1.9470 H   0  0  0  0  0
   -1.3380   -1.2220    2.3300 H   0  0  0  0  0
   -1.9990   -3.0830    0.9850 H   0  0  0  0  0
   -3.5420   -3.9870   -0.7080 H   0  0  0  0  0
   -4.8250   -2.4550   -2.1470 H   0  0  0  0  0
   -4.5650   -0.0190   -1.8930 H   0  0  0  0  0
   -3.0300    0.8840   -0.1930 H   0  0  0  0  0
    0.9750   -0.0910   -2.3970 H   0  0  0  0  0
  1  6  1  0  0  0
  1  2  2  0  0  0
  2 25  1  0  0  0
  3  2  1  0  0  0
  3 26  1  0  0  0
  4  3  2  0  0  0
  4 27  1  0  0  0
  5 13  2  0  0  0
  5  4  1  0  0  0
  5 28  1  0  0  0
  6 23  1  0  0  0
  7  8  1  0  0  0
  7 29  1  0  0  0
  8 21  1  0  0  0
  9  8  2  0  0  0
  9 30  1  0  0  0
 10  9  1  0  0  0
 10 31  1  0  0  0
 11 10  2  0  0  0
 11 12  1  0  0  0
 12  7  2  0  0  0
 13  1  1  0  0  0
 14 15  1  0  0  0
 14 32  1  0  0  0
 14 33  1  0  0  0
 15 16  1  0  0  0
 16 17  2  0  0  0
 16 34  1  0  0  0
 17 35  1  0  0  0
 18 17  1  0  0  0
 18 36  1  0  0  0
 19 18  2  0  0  0
 19 37  1  0  0  0
 20 15  2  0  0  0
 20 19  1  0  0  0
 20 38  1  0  0  0
 22 13  1  0  0  0
 22 11  1  0  0  0
 22 39  1  0  0  0
 23 14  1  0  0  0
 23 12  1  0  0  0
 24  6  2  0  0  0
M  END
$$$$
