@<TRIPOS>MOLECULE
O57
24 27 0 0 0
SMALL
NO_CHARGES

@<TRIPOS>ATOM
     1 CAC         33.8780   -38.7790    -1.4820 C.ar     1 LIG 0.0000
     2 CAD         32.6950   -39.0910    -2.1410 C.ar     1 LIG 0.0000
     3 CAE         34.5570   -37.5950    -1.7500 C.ar     1 LIG 0.0000
     4 CAF         32.1150   -31.0800    -2.8660 C.ar     1 LIG 0.0000
     5 CAG         32.0270   -32.2440    -2.0940 C.ar     1 LIG 0.0000
     6 CAH         32.1990   -38.2020    -3.0930 C.ar     1 LIG 0.0000
     7 CAI         34.0580   -36.7120    -2.7040 C.ar     1 LIG 0.0000
     8 CAJ         36.8990   -32.0350    -7.1110 C.ar     1 LIG 0.0000
     9 CAK         32.5370   -31.1410    -4.1800 C.ar     1 LIG 0.0000
    10 CAL         32.3590   -33.4920    -2.6350 C.ar     1 LIG 0.0000
    11 CAM         35.5590   -31.7050    -6.8640 C.ar     1 LIG 0.0000
    12 CAN         36.5090   -34.3300    -6.3910 C.ar     1 LIG 0.0000
    13 CAO         32.3260   -36.0670    -4.3870 C.ar     1 LIG 0.0000
    14 CAQ         37.3650   -33.3430    -6.8730 C.ar     1 LIG 0.0000
    15 CAR         32.8800   -37.0080    -3.3690 C.ar     1 LIG 0.0000
    16 CAS         34.2220   -35.1060    -5.6190 C.ar     1 LIG 0.0000
    17 CAT         34.6790   -32.7220    -6.3960 C.ar     1 LIG 0.0000
    18 CAU         32.8600   -32.4110    -4.7490 C.ar     1 LIG 0.0000
    19 CAV         35.1370   -33.9940    -6.1330 C.ar     1 LIG 0.0000
    20 CAW         32.8000   -33.5830    -4.0060 C.ar     1 LIG 0.0000
    21 FAB         38.6340   -33.6560    -7.0980 F        1 LIG 0.0000
    22 NAP         33.3380   -32.3320    -6.0990 N.ar     1 LIG 0.0000
    23 NAX         33.1640   -34.8790    -4.6460 N.ar     1 LIG 0.0000
    24 OAA         34.3450   -36.2020    -6.1130 O.2      1 LIG 0.0000
@<TRIPOS>BOND
     1    8   14 2
     2    8   11 1
     3   21   14 1
     4   14   12 1
     5   11   17 2
     6   17   19 1
     7   17   22 1
     8   12   19 2
     9   19   16 1
    10   24   16 2
    11   22   18 1
    12   16   23 1
    13   18    9 2
    14   18   20 1
    15   23   13 1
    16   23   20 1
    17   13   15 1
    18    9    4 1
    19   20   10 2
    20   15    6 2
    21   15    7 1
    22    6    2 1
    23    4    5 2
    24    7    3 2
    25   10    5 1
    26    2    1 2
    27    3    1 1
