O57
  CCTOOLS-0919241043

 39 42  0  0  0  0  0  0  0  0999 V2000
    4.4340   -1.8350    1.4390 C   0  0  0  0  0
    3.5900   -2.7450    0.8310 C   0  0  0  0  0
    4.3940   -0.5020    1.0730 C   0  0  0  0  0
    0.6190    4.0230    0.0470 C   0  0  0  0  0
    1.1560    3.5780   -1.1460 C   0  0  0  0  0
    2.7090   -2.3230   -0.1470 C   0  0  0  0  0
    3.5130   -0.0810    0.0950 C   0  0  0  0  0
   -4.2290   -0.2020    1.0940 C   0  0  0  0  0
    0.0070    3.1280    0.9050 C   0  0  0  0  0
    1.0890    2.2390   -1.4820 C   0  0  0  0  0
   -3.1000    0.4280    1.5800 C   0  0  0  0  0
   -2.9320   -1.2340   -0.6300 C   0  0  0  0  0
    1.7130   -0.5320   -1.5850 C   0  0  0  0  0
   -4.1460   -1.0210   -0.0090 C   0  0  0  0  0
    2.6730   -0.9920   -0.5180 C   0  0  0  0  0
   -0.4820   -0.8970   -0.7670 C   0  0  0  0  0
   -1.8750    0.2370    0.9570 C   0  0  0  0  0
   -0.0690    1.7840    0.5710 C   0  0  0  0  0
   -1.7780   -0.6160   -0.1390 C   0  0  0  0  0
    0.4820    1.3300   -0.6230 C   0  0  0  0  0
   -5.2590   -1.6200   -0.4860 F   0  0  0  0  0
   -0.7480    0.9050    1.4240 N   0  0  0  0  0
    0.4920   -0.0230   -0.9560 N   0  0  0  0  0
   -0.2870   -2.0360   -1.1470 O   0  0  0  0  0
    5.1230   -2.1640    2.2040 H   0  0  0  0  0
    3.6180   -3.7850    1.1210 H   0  0  0  0  0
    5.0510    0.2090    1.5510 H   0  0  0  0  0
    0.6830    5.0690    0.3110 H   0  0  0  0  0
    1.6280    4.2790   -1.8190 H   0  0  0  0  0
    2.0490   -3.0340   -0.6220 H   0  0  0  0  0
    3.4810    0.9600   -0.1900 H   0  0  0  0  0
   -5.1810   -0.0510    1.5820 H   0  0  0  0  0
   -0.4120    3.4770    1.8370 H   0  0  0  0  0
    1.5100    1.8980   -2.4170 H   0  0  0  0  0
   -3.1710    1.0710    2.4450 H   0  0  0  0  0
   -2.8740   -1.8780   -1.4950 H   0  0  0  0  0
    2.1760    0.2590   -2.1740 H   0  0  0  0  0
    1.4650   -1.3710   -2.2350 H   0  0  0  0  0
   -0.4350    0.7630    2.3320 H   0  0  0  0  0
  1 25  1  0  0  0
  2  1  2  0  0  0
  2 26  1  0  0  0
  3  1  1  0  0  0
  3 27  1  0  0  0
  4  5  2  0  0  0
  4 28  1  0  0  0
  5 29  1  0  0  0
  6  2  1  0  0  0
  6 30  1  0  0  0
  7  3  2  0  0  0
  7 31  1  0  0  0
  8 14  2  0  0  0
  8 11  1  0  0  0
  8 32  1  0  0  0
  9  4  1  0  0  0
  9 33  1  0  0  0
 10  5  1  0  0  0
 10 34  1  0  0  0
 11 17  2  0  0  0
 11 35  1  0  0  0
 12 19  2  0  0  0
 12 36  1  0  0  0
 13 15  1  0  0  0
 13 37  1  0  0  0
 13 38  1  0  0  0
 14 12  1  0  0  0
 15  6  2  0  0  0
 15  7  1  0  0  0
 16 23  1  0  0  0
 17 19  1  0  0  0
 17 22  1  0  0  0
 18  9  2  0  0  0
 18 20  1  0  0  0
 19 16  1  0  0  0
 20 10  2  0  0  0
 21 14  1  0  0  0
 22 18  1  0  0  0
 22 39  1  0  0  0
 23 13  1  0  0  0
 23 20  1  0  0  0
 24 16  2  0  0  0
M  END
$$$$
