@<TRIPOS>MOLECULE
POX
32 35 0 0 0
SMALL
NO_CHARGES

@<TRIPOS>ATOM
     1 C1          16.2990    37.4260    96.8340 C.ar     1 LIG 0.0000
     2 C2          14.9610    37.3430    96.2990 C.ar     1 LIG 0.0000
     3 C3          14.1390    38.4860    96.2120 C.ar     1 LIG 0.0000
     4 N6          13.6390    32.6540    86.7070 N.ar     1 LIG 0.0000
     5 C7          17.1620    36.1640    96.9160 C.ar     1 LIG 0.0000
     6 C8          15.4530    33.3690    95.6360 C.ar     1 LIG 0.0000
     7 C9          16.4760    34.1520    92.0150 C.ar     1 LIG 0.0000
     8 C10         17.2310    35.3030    92.3670 C.ar     1 LIG 0.0000
     9 C11         17.3560    35.7340    93.7050 C.ar     1 LIG 0.0000
    10 C12         16.6890    34.9690    94.7050 C.ar     1 LIG 0.0000
    11 C13         15.9390    33.8240    94.3990 C.ar     1 LIG 0.0000
    12 C14         15.8280    33.4070    93.0430 C.ar     1 LIG 0.0000
    13 C15         12.8970    34.1310    89.8140 C.ar     1 LIG 0.0000
    14 C16         15.1670    33.6350    89.9000 C.ar     1 LIG 0.0000
    15 C19         16.3330    32.5230    87.9850 C.ar     1 LIG 0.0000
    16 C20         18.3720    31.9620    85.1860 C.ar     1 LIG 0.0000
    17 C21         19.9100    31.8560    85.2010 C.ar     1 LIG 0.0000
    18 C22         21.8320    31.8250    83.8940 C.ar     1 LIG 0.0000
    19 C4          14.6110    39.7530    96.6510 C.ar     1 LIG 0.0000
    20 C5          15.9310    39.8620    97.1820 C.ar     1 LIG 0.0000
    21 C6          16.7710    38.7010    97.2720 C.ar     1 LIG 0.0000
    22 F1          12.9030    38.3620    95.7080 F        1 LIG 0.0000
    23 N1          16.5820    35.1030    96.0790 N.ar     1 LIG 0.0000
    24 N2          15.8300    34.1290    96.6580 N.ar     1 LIG 0.0000
    25 N3          16.3180    33.7180    90.6900 N.ar     1 LIG 0.0000
    26 N4          12.7520    33.6300    88.5560 N.ar     1 LIG 0.0000
    27 N5          14.0450    34.1580    90.5010 N.ar     1 LIG 0.0000
    28 C17         15.1190    33.0870    88.6170 C.ar     1 LIG 0.0000
    29 C18         13.8530    33.1220    87.9740 C.ar     1 LIG 0.0000
    30 N7          16.6570    32.6170    86.7330 N.ar     1 LIG 0.0000
    31 O1          17.8930    31.9180    86.5560 O.2      1 LIG 0.0000
    32 O2          20.4030    31.9070    83.8520 O.2      1 LIG 0.0000
@<TRIPOS>BOND
     1    1    2 2
     2    1    5 1
     3    1   21 1
     4    2    3 1
     5    3   19 2
     6    3   22 1
     7    4   29 1
     8    5   23 1
     9    6   11 1
    10    6   24 2
    11    7    8 2
    12    7   12 1
    13    7   25 1
    14    8    9 1
    15    9   10 2
    16   10   11 1
    17   10   23 1
    18   11   12 2
    19   13   26 2
    20   13   27 1
    21   14   25 1
    22   14   27 2
    23   14   28 1
    24   15   28 1
    25   15   30 2
    26   16   17 1
    27   16   31 1
    28   17   32 1
    29   18   32 1
    30   19   20 1
    31   20   21 2
    32   23   24 1
    33   26   29 1
    34   28   29 2
    35   30   31 1
