QFO
  CCTOOLS-0919241036

 72 76  0  0  1  0  0  0  0  0999 V2000
    3.3950   -5.6270   -1.0740 C   0  0  0  0  0
    2.4900   -5.2370    0.0950 C   0  0  0  0  0
    3.0200   -5.8690    1.3840 C   0  0  0  0  0
    2.4740   -3.7370    0.2410 C   0  0  0  0  0
    3.6250   -3.0520    0.4840 C   0  0  0  0  0
    3.6430   -1.7320    0.6170 N   0  0  0  0  0
    2.5550   -0.9890    0.5240 C   0  0  0  0  0
    2.6350    0.3830    0.6710 N   0  0  0  0  0
    2.6480    1.0580   -0.6450 C   0  0  0  0  0
    3.7480    1.9600   -0.0560 C   0  0  0  0  0
    4.9000    2.2390   -1.0240 C   0  0  0  0  0
    6.0490    3.4240   -0.2710 S   0  0  0  0  0
    5.3790    4.6680   -0.1170 O   0  0  0  0  0
    6.6500    2.8140    0.8620 O   0  0  0  0  0
    7.3060    3.6010   -1.5670 C   0  0  0  0  0
    4.0290    0.8090    0.9260 C   0  0  0  0  0
    1.3100   -1.6050    0.2730 C   0  0  0  0  0
    0.1180   -0.8820    0.1620 C   0  0  0  0  0
   -1.0120   -1.5090   -0.0730 N   0  0  0  0  0
   -1.0860   -2.8310   -0.2150 C   0  0  0  0  0
   -2.3230   -3.4200   -0.4620 N   0  0  0  0  0
   -3.4740   -2.6470   -0.4500 C   0  0  0  0  0
   -3.3990   -1.3270   -0.3110 N   0  0  0  0  0
   -4.4970   -0.5860   -0.2990 C   0  0  0  0  0
   -5.7010   -1.1250   -0.4220 N   0  0  0  0  0
   -5.8490   -2.4340   -0.5640 C   0  0  0  0  0
   -4.7290   -3.2430   -0.5890 C   0  0  0  0  0
   -4.3840    0.7860   -0.1520 N   0  0  0  0  0
   -3.6380    1.1250    1.0670 C   0  0  0  0  0
   -3.4070    2.6370    1.1210 C   0  0  0  0  0
   -4.7590    3.3560    1.1100 C   0  0  0  0  0
   -4.5480    4.7690    1.1040 O   0  0  0  0  0
   -5.5350    2.9480   -0.1460 C   0  0  0  0  0
   -6.9120    3.6150   -0.1350 C   0  0  0  0  0
   -4.8290    3.3520   -1.2840 F   0  0  0  0  0
   -5.7050    1.4270   -0.1630 C   0  0  0  0  0
    0.0360   -3.6310   -0.1220 C   0  0  0  0  0
    1.2720   -3.0180    0.1220 C   0  0  0  0  0
    3.4060   -6.7120   -1.1790 H   0  0  0  0  0
    3.0170   -5.1770   -1.9920 H   0  0  0  0  0
    4.4080   -5.2700   -0.8850 H   0  0  0  0  0
    1.4770   -5.5940   -0.0940 H   0  0  0  0  0
    2.3750   -5.5910    2.2170 H   0  0  0  0  0
    3.0310   -6.9540    1.2790 H   0  0  0  0  0
    4.0320   -5.5120    1.5740 H   0  0  0  0  0
    4.5520   -3.5990    0.5720 H   0  0  0  0  0
    2.9920    0.4220   -1.4610 H   0  0  0  0  0
    1.7240    1.5870   -0.8770 H   0  0  0  0  0
    3.3660    2.8620    0.4220 H   0  0  0  0  0
    5.4260    1.3090   -1.2400 H   0  0  0  0  0
    4.5030    2.6550   -1.9510 H   0  0  0  0  0
    6.8390    3.9780   -2.4770 H   0  0  0  0  0
    8.0720    4.3020   -1.2360 H   0  0  0  0  0
    7.7610    2.6320   -1.7670 H   0  0  0  0  0
    4.2070    1.1390    1.9490 H   0  0  0  0  0
    4.7760    0.1000    0.5700 H   0  0  0  0  0
    0.1270    0.1920    0.2690 H   0  0  0  0  0
   -2.3790   -4.3710   -0.6440 H   0  0  0  0  0
   -6.8350   -2.8640   -0.6650 H   0  0  0  0  0
   -4.8230   -4.3120   -0.7080 H   0  0  0  0  0
   -4.2110    0.8140    1.9410 H   0  0  0  0  0
   -2.6770    0.6110    1.0600 H   0  0  0  0  0
   -2.8680    2.8900    2.0330 H   0  0  0  0  0
   -2.8230    2.9470    0.2540 H   0  0  0  0  0
   -5.3280    3.0760    1.9970 H   0  0  0  0  0
   -4.0580    5.0970    1.8700 H   0  0  0  0  0
   -7.4610    3.3010    0.7530 H   0  0  0  0  0
   -6.7910    4.6980   -0.1220 H   0  0  0  0  0
   -7.4650    3.3210   -1.0270 H   0  0  0  0  0
   -6.2440    1.1320   -1.0630 H   0  0  0  0  0
   -6.2670    1.1140    0.7170 H   0  0  0  0  0
   -0.0360   -4.7020   -0.2390 H   0  0  0  0  0
  1 39  1  0  0  0
  1 40  1  0  0  0
  1 41  1  0  0  0
  2  1  1  0  0  0
  2 42  1  0  0  0
  3  2  1  0  0  0
  3 43  1  0  0  0
  3 44  1  0  0  0
  3 45  1  0  0  0
  4  5  1  0  0  0
  4  2  1  0  0  0
  5 46  1  0  0  0
  6  5  2  0  0  0
  7  6  1  0  0  0
  8 16  1  0  0  0
  8  7  1  0  0  0
  9 10  1  0  0  0
  9  8  1  0  0  0
  9 47  1  0  0  0
  9 48  1  0  0  0
 10 16  1  0  0  0
 10 49  1  0  0  0
 11 10  1  0  0  0
 11 50  1  0  0  0
 11 51  1  0  0  0
 12 11  1  0  0  0
 12 14  2  0  0  0
 13 12  2  0  0  0
 15 12  1  0  0  0
 15 52  1  0  0  0
 15 53  1  0  0  0
 15 54  1  0  0  0
 16 55  1  0  0  0
 16 56  1  0  0  0
 17  7  2  0  0  0
 17 38  1  0  0  0
 18 17  1  0  0  0
 18 57  1  0  0  0
 19 18  2  0  0  0
 19 20  1  0  0  0
 20 37  2  0  0  0
 21 20  1  0  0  0
 21 22  1  0  0  0
 21 58  1  0  0  0
 22 27  2  0  0  0
 22 23  1  0  0  0
 23 24  2  0  0  0
 24 25  1  0  0  0
 24 28  1  0  0  0
 26 25  2  0  0  0
 26 59  1  0  0  0
 27 26  1  0  0  0
 27 60  1  0  0  0
 28 36  1  0  0  0
 28 29  1  0  0  0
 29 61  1  0  0  0
 29 62  1  0  0  0
 30 31  1  0  0  0
 30 29  1  0  0  0
 30 63  1  0  0  0
 30 64  1  0  0  0
 31 65  1  0  0  0
 32 31  1  0  0  0
 32 66  1  0  0  0
 33 34  1  0  0  0
 33 36  1  0  0  0
 33 31  1  0  0  0
 34 67  1  0  0  0
 34 68  1  0  0  0
 34 69  1  0  0  0
 35 33  1  0  0  0
 36 70  1  0  0  0
 36 71  1  0  0  0
 37 38  1  0  0  0
 37 72  1  0  0  0
 38  4  2  0  0  0
M  END
$$$$
