QFO
     RDKit          3D

 38 42  0  0  1  0  0  0  0  0999 V2000
    3.3950   -5.6270   -1.0740 C   0  0  0  0  0  0  0  0  0  0  0  0
    2.4900   -5.2370    0.0950 C   0  0  0  0  0  0  0  0  0  0  0  0
    3.0200   -5.8690    1.3840 C   0  0  0  0  0  0  0  0  0  0  0  0
    2.4740   -3.7370    0.2410 C   0  0  0  0  0  0  0  0  0  0  0  0
    3.6250   -3.0520    0.4840 C   0  0  0  0  0  0  0  0  0  0  0  0
    3.6430   -1.7320    0.6170 N   0  0  0  0  0  0  0  0  0  0  0  0
    2.5550   -0.9890    0.5240 C   0  0  0  0  0  0  0  0  0  0  0  0
    2.6350    0.3830    0.6710 N   0  0  0  0  0  0  0  0  0  0  0  0
    2.6480    1.0580   -0.6450 C   0  0  0  0  0  0  0  0  0  0  0  0
    3.7480    1.9600   -0.0560 C   0  0  0  0  0  0  0  0  0  0  0  0
    4.9000    2.2390   -1.0240 C   0  0  0  0  0  0  0  0  0  0  0  0
    6.0490    3.4240   -0.2710 S   0  0  0  0  0  0  0  0  0  0  0  0
    5.3790    4.6680   -0.1170 O   0  0  0  0  0  0  0  0  0  0  0  0
    6.6500    2.8140    0.8620 O   0  0  0  0  0  0  0  0  0  0  0  0
    7.3060    3.6010   -1.5670 C   0  0  0  0  0  0  0  0  0  0  0  0
    4.0290    0.8090    0.9260 C   0  0  0  0  0  0  0  0  0  0  0  0
    1.3100   -1.6050    0.2730 C   0  0  0  0  0  0  0  0  0  0  0  0
    0.1180   -0.8820    0.1620 C   0  0  0  0  0  0  0  0  0  0  0  0
   -1.0120   -1.5090   -0.0730 N   0  0  0  0  0  0  0  0  0  0  0  0
   -1.0860   -2.8310   -0.2150 C   0  0  0  0  0  0  0  0  0  0  0  0
   -2.3230   -3.4200   -0.4620 N   0  0  0  0  0  0  0  0  0  0  0  0
   -3.4740   -2.6470   -0.4500 C   0  0  0  0  0  0  0  0  0  0  0  0
   -3.3990   -1.3270   -0.3110 N   0  0  0  0  0  0  0  0  0  0  0  0
   -4.4970   -0.5860   -0.2990 C   0  0  0  0  0  0  0  0  0  0  0  0
   -5.7010   -1.1250   -0.4220 N   0  0  0  0  0  0  0  0  0  0  0  0
   -5.8490   -2.4340   -0.5640 C   0  0  0  0  0  0  0  0  0  0  0  0
   -4.7290   -3.2430   -0.5890 C   0  0  0  0  0  0  0  0  0  0  0  0
   -4.3840    0.7860   -0.1520 N   0  0  0  0  0  0  0  0  0  0  0  0
   -3.6380    1.1250    1.0670 C   0  0  0  0  0  0  0  0  0  0  0  0
   -3.4070    2.6370    1.1210 C   0  0  0  0  0  0  0  0  0  0  0  0
   -4.7590    3.3560    1.1100 C   0  0  1  0  0  0  0  0  0  0  0  0
   -4.5480    4.7690    1.1040 O   0  0  0  0  0  0  0  0  0  0  0  0
   -5.5350    2.9480   -0.1460 C   0  0  1  0  0  0  0  0  0  0  0  0
   -6.9120    3.6150   -0.1350 C   0  0  0  0  0  0  0  0  0  0  0  0
   -4.8290    3.3520   -1.2840 F   0  0  0  0  0  0  0  0  0  0  0  0
   -5.7050    1.4270   -0.1630 C   0  0  0  0  0  0  0  0  0  0  0  0
    0.0360   -3.6310   -0.1220 C   0  0  0  0  0  0  0  0  0  0  0  0
    1.2720   -3.0180    0.1220 C   0  0  0  0  0  0  0  0  0  0  0  0
  2  1  1  0
  3  2  1  0
  4  5  1  0
  4  2  1  0
  6  5  2  0
  7  6  1  0
  8 16  1  0
  8  7  1  0
  9 10  1  0
  9  8  1  0
 10 16  1  0
 11 10  1  0
 12 11  1  0
 12 14  2  0
 13 12  2  0
 15 12  1  0
 17  7  2  0
 17 38  1  0
 18 17  1  0
 19 18  2  0
 19 20  1  0
 20 37  2  0
 21 20  1  0
 21 22  1  0
 22 27  1  0
 22 23  2  0
 23 24  1  0
 24 25  2  0
 24 28  1  0
 26 25  1  0
 27 26  2  0
 28 36  1  0
 28 29  1  0
 30 31  1  0
 30 29  1  0
 31 32  1  6
 33 34  1  1
 33 36  1  0
 33 31  1  0
 35 33  1  0
 37 38  1  0
 38  4  2  0
M  END
$$$$
