@<TRIPOS>MOLECULE
QFO
38 42 0 0 0
SMALL
NO_CHARGES

@<TRIPOS>ATOM
     1 C1         -11.8370    18.6010     3.0120 C.ar     1 LIG 0.0000
     2 C2         -12.4520    18.6370     1.6090 C.ar     1 LIG 0.0000
     3 C3         -13.4080    19.8220     1.4470 C.ar     1 LIG 0.0000
     4 C4         -13.0750    17.3020     1.2320 C.ar     1 LIG 0.0000
     5 C5         -14.4440    17.1320     1.3440 C.ar     1 LIG 0.0000
     6 N1         -15.0560    15.9850     1.0430 N.ar     1 LIG 0.0000
     7 C6         -14.3470    14.9330     0.6050 C.ar     1 LIG 0.0000
     8 N2         -15.1270    13.7830     0.2990 N.ar     1 LIG 0.0000
     9 C7         -14.7690    12.5490    -0.3750 C.ar     1 LIG 0.0000
    10 C8         -16.2840    12.1700    -0.1170 C.ar     1 LIG 0.0000
    11 C9         -17.1320    11.8790    -1.3480 C.ar     1 LIG 0.0000
    12 S1         -16.7770    10.3010    -2.0830 S.2      1 LIG 0.0000
    13 O1         -17.4230    10.2610    -3.3550 O.2      1 LIG 0.0000
    14 O2         -17.0750     9.2960    -1.1100 O.2      1 LIG 0.0000
    15 C10        -15.0550    10.2600    -2.3660 C.ar     1 LIG 0.0000
    16 C11        -16.5590    13.5720     0.5290 C.ar     1 LIG 0.0000
    17 C12        -12.9200    14.9880     0.4510 C.ar     1 LIG 0.0000
    18 C13        -12.1050    13.9160    -0.0060 C.ar     1 LIG 0.0000
    19 N3         -10.7920    13.9860    -0.1210 N.ar     1 LIG 0.0000
    20 C14        -10.1480    15.1350     0.1530 C.ar     1 LIG 0.0000
    21 N4          -8.7680    15.0810    -0.0540 N.ar     1 LIG 0.0000
    22 C15         -7.7330    15.8720     0.4320 C.ar     1 LIG 0.0000
    23 N5          -7.9670    17.1450     0.7670 N.ar     1 LIG 0.0000
    24 C16         -6.9380    17.8790     1.2570 C.ar     1 LIG 0.0000
    25 N6          -5.6980    17.4010     1.4510 N.ar     1 LIG 0.0000
    26 C17         -5.4840    16.1330     1.0890 C.ar     1 LIG 0.0000
    27 C18         -6.4590    15.3230     0.5740 C.ar     1 LIG 0.0000
    28 N7          -7.1680    19.1610     1.6010 N.ar     1 LIG 0.0000
    29 C19         -6.1010    20.0370     2.0890 C.ar     1 LIG 0.0000
    30 C20         -6.1950    21.4510     1.5520 C.ar     1 LIG 0.0000
    31 C21         -7.5780    22.0140     1.7910 C.ar     1 LIG 0.0000
    32 O3          -7.6340    23.3600     1.3080 O.2      1 LIG 0.0000
    33 C22         -8.6200    21.1220     1.1150 C.ar     1 LIG 0.0000
    34 C23        -10.0360    21.6410     1.3350 C.ar     1 LIG 0.0000
    35 F1          -8.3240    21.0810    -0.2840 F        1 LIG 0.0000
    36 C24         -8.5270    19.7170     1.6770 C.ar     1 LIG 0.0000
    37 C25        -10.8550    16.2820     0.6110 C.ar     1 LIG 0.0000
    38 C26        -12.2660    16.2070     0.7760 C.ar     1 LIG 0.0000
@<TRIPOS>BOND
     1   13   12 2
     2   15   12 1
     3   12   11 1
     4   12   14 2
     5   11   10 1
     6    9   10 1
     7    9    8 1
     8   35   33 1
     9   19   18 2
    10   19   20 1
    11   10   16 1
    12   21   20 1
    13   21   22 1
    14   18   17 1
    15   20   37 2
    16    8   16 1
    17    8    7 1
    18   22   27 2
    19   22   23 1
    20   17    7 2
    21   17   38 1
    22   27   26 1
    23    7    6 1
    24   37   38 1
    25   23   24 2
    26   38    4 2
    27    6    5 2
    28   26   25 2
    29   33   34 1
    30   33   36 1
    31   33   31 1
    32    4    5 1
    33    4    2 1
    34   24   25 1
    35   24   28 1
    36   32   31 1
    37    3    2 1
    38   30   31 1
    39   30   29 1
    40   28   36 1
    41   28   29 1
    42    2    1 1
