V58
  CCTOOLS-0919241042

 76 81  0  0  0  0  0  0  0  0999 V2000
   -2.5280   -0.4710    0.0890 C   0  0  0  0  0
   -0.2280   -0.0630   -0.1240 N   0  0  0  0  0
   -0.4180    1.1860    0.2860 C   0  0  0  0  0
    1.9650    1.5300    0.1780 C   0  0  0  0  0
    3.4940   -0.3170    0.1270 C   0  0  0  0  0
    5.8530   -1.4110   -0.2270 C   0  0  0  0  0
    7.2370   -1.9460   -0.6040 C   0  0  0  0  0
    8.2980   -1.2500    0.2520 C   0  0  0  0  0
   10.6790   -1.0680    0.6570 C   0  0  0  0  0
    8.2010    0.2630    0.0410 C   0  0  0  0  0
    4.2710    1.8980   -0.3970 C   0  0  0  0  0
   -3.6800   -1.3770   -0.0190 C   0  0  0  0  0
   -4.5850   -3.4820   -0.3010 C   0  0  0  0  0
   -5.4770   -3.4610   -1.3650 C   0  0  0  0  0
   -6.5870   -4.2830   -1.3490 C   0  0  0  0  0
   -6.8100   -5.1260   -0.2760 C   0  0  0  0  0
   -5.9240   -5.1470    0.7850 C   0  0  0  0  0
   -4.8120   -4.3280    0.7740 C   0  0  0  0  0
   -1.2370   -0.9070   -0.2340 C   0  0  0  0  0
    2.2200    0.1760    0.3350 C   0  0  0  0  0
    4.5220    0.5410   -0.2390 C   0  0  0  0  0
    9.7290   -3.1790   -0.0520 C   0  0  0  0  0
    6.7900    0.7340    0.3990 C   0  0  0  0  0
    2.9950    2.3940   -0.1890 C   0  0  0  0  0
    3.8500    4.5480   -0.7210 C   0  0  0  0  0
   -2.6920    0.8680    0.5170 C   0  0  0  0  0
   -4.0280    1.3870    0.8670 C   0  0  0  0  0
   -4.6660    1.2530    2.0610 C   0  0  0  0  0
   -6.0750    2.4260    0.7610 C   0  0  0  0  0
   -4.9300    2.1580   -0.0070 C   0  0  0  0  0
   -4.8470    2.6150   -1.3210 C   0  0  0  0  0
   -5.8930    3.3300   -1.8610 C   0  0  0  0  0
   -7.0250    3.5960   -1.1030 C   0  0  0  0  0
   -7.1200    3.1500    0.1970 C   0  0  0  0  0
    0.6700    2.0300    0.3840 N   0  0  0  0  0
    5.8110    0.0400   -0.4480 N   0  0  0  0  0
    9.6330   -1.7170   -0.1460 N   0  0  0  0  0
   -1.6180    1.6500    0.5990 N   0  0  0  0  0
   -5.8790    1.8640    2.0050 N   0  0  0  0  0
   -4.8060   -0.9530    0.1600 O   0  0  0  0  0
   -3.4900   -2.6780   -0.3170 O   0  0  0  0  0
    2.7470    3.7220   -0.3430 O   0  0  0  0  0
    3.6900   -1.3720    0.2510 H   0  0  0  0  0
    5.0960   -1.8950   -0.8450 H   0  0  0  0  0
    5.6550   -1.6250    0.8230 H   0  0  0  0  0
    7.2730   -3.0210   -0.4260 H   0  0  0  0  0
    7.4290   -1.7460   -1.6580 H   0  0  0  0  0
    8.1290   -1.4840    1.3030 H   0  0  0  0  0
   10.5260   -1.3030    1.7100 H   0  0  0  0  0
   11.6570   -1.4310    0.3410 H   0  0  0  0  0
   10.6290    0.0120    0.5140 H   0  0  0  0  0
    8.9260    0.7670    0.6800 H   0  0  0  0  0
    8.4100    0.4990   -1.0030 H   0  0  0  0  0
    5.0710    2.5660   -0.6820 H   0  0  0  0  0
   -5.3030   -2.8030   -2.2030 H   0  0  0  0  0
   -7.2810   -4.2670   -2.1760 H   0  0  0  0  0
   -7.6790   -5.7670   -0.2660 H   0  0  0  0  0
   -6.1010   -5.8060    1.6230 H   0  0  0  0  0
   -4.1190   -4.3450    1.6030 H   0  0  0  0  0
   -1.0690   -1.9200   -0.5680 H   0  0  0  0  0
    1.4220   -0.4940    0.6190 H   0  0  0  0  0
    8.9890   -3.6350   -0.7100 H   0  0  0  0  0
   10.7270   -3.4980   -0.3520 H   0  0  0  0  0
    9.5420   -3.4910    0.9750 H   0  0  0  0  0
    6.5870    0.5100    1.4460 H   0  0  0  0  0
    6.7130    1.8090    0.2360 H   0  0  0  0  0
    4.6300    4.4820    0.0380 H   0  0  0  0  0
    4.2460    4.2110   -1.6790 H   0  0  0  0  0
    3.5160    5.5820   -0.8100 H   0  0  0  0  0
   -4.2690    0.7380    2.9230 H   0  0  0  0  0
   -3.9670    2.4100   -1.9120 H   0  0  0  0  0
   -5.8320    3.6860   -2.8780 H   0  0  0  0  0
   -7.8390    4.1580   -1.5370 H   0  0  0  0  0
   -8.0060    3.3620    0.7770 H   0  0  0  0  0
    0.5400    2.9670    0.5950 H   0  0  0  0  0
   -6.5150    1.9010    2.7360 H   0  0  0  0  0
  1 12  1  0  0  0
  2 19  2  0  0  0
  3 38  2  0  0  0
  3  2  1  0  0  0
  4 24  2  0  0  0
  5 21  1  0  0  0
  5 43  1  0  0  0
  6 36  1  0  0  0
  6  7  1  0  0  0
  6 44  1  0  0  0
  6 45  1  0  0  0
  7 46  1  0  0  0
  7 47  1  0  0  0
  8  7  1  0  0  0
  8 37  1  0  0  0
  8 48  1  0  0  0
  9 37  1  0  0  0
  9 49  1  0  0  0
  9 50  1  0  0  0
  9 51  1  0  0  0
 10  8  1  0  0  0
 10 52  1  0  0  0
 10 53  1  0  0  0
 11 54  1  0  0  0
 12 41  1  0  0  0
 13 14  2  0  0  0
 14 15  1  0  0  0
 14 55  1  0  0  0
 15 56  1  0  0  0
 16 15  2  0  0  0
 16 57  1  0  0  0
 17 16  1  0  0  0
 17 58  1  0  0  0
 18 17  2  0  0  0
 18 13  1  0  0  0
 18 59  1  0  0  0
 19  1  1  0  0  0
 19 60  1  0  0  0
 20  5  2  0  0  0
 20  4  1  0  0  0
 20 61  1  0  0  0
 21 36  1  0  0  0
 21 11  2  0  0  0
 22 62  1  0  0  0
 22 63  1  0  0  0
 22 64  1  0  0  0
 23 10  1  0  0  0
 23 36  1  0  0  0
 23 65  1  0  0  0
 23 66  1  0  0  0
 24 11  1  0  0  0
 24 42  1  0  0  0
 25 67  1  0  0  0
 25 68  1  0  0  0
 25 69  1  0  0  0
 26 27  1  0  0  0
 26  1  2  0  0  0
 27 30  1  0  0  0
 28 39  1  0  0  0
 28 27  2  0  0  0
 28 70  1  0  0  0
 29 30  2  0  0  0
 29 34  1  0  0  0
 30 31  1  0  0  0
 31 32  2  0  0  0
 31 71  1  0  0  0
 32 72  1  0  0  0
 33 32  1  0  0  0
 33 73  1  0  0  0
 34 33  2  0  0  0
 34 74  1  0  0  0
 35  4  1  0  0  0
 35  3  1  0  0  0
 35 75  1  0  0  0
 37 22  1  0  0  0
 38 26  1  0  0  0
 39 29  1  0  0  0
 39 76  1  0  0  0
 40 12  2  0  0  0
 41 13  1  0  0  0
 42 25  1  0  0  0
M  END
$$$$
