@<TRIPOS>MOLECULE
V58
42 47 0 0 0
SMALL
NO_CHARGES

@<TRIPOS>ATOM
     1 C10         41.7460    -9.8470    -2.8510 C.ar     1 LIG 0.0000
     2 N12         40.3980   -11.7010    -3.2780 N.ar     1 LIG 0.0000
     3 C13         41.4740   -12.4170    -3.5340 C.ar     1 LIG 0.0000
     4 C15         42.2650   -14.8730    -3.7590 C.ar     1 LIG 0.0000
     5 C17         44.4670   -15.8100    -4.0470 C.ar     1 LIG 0.0000
     6 C20         46.3800   -17.7880    -3.5420 C.ar     1 LIG 0.0000
     7 C21         47.2680   -18.9910    -3.2320 C.ar     1 LIG 0.0000
     8 C22         46.8390   -20.2790    -3.7770 C.ar     1 LIG 0.0000
     9 C24         47.0350   -22.6570    -3.3690 C.ar     1 LIG 0.0000
    10 C26         45.4010   -20.5050    -3.8700 C.ar     1 LIG 0.0000
    11 C28         42.7250   -17.1070    -3.0190 C.ar     1 LIG 0.0000
    12 C02         41.8340    -8.3810    -2.4310 C.ar     1 LIG 0.0000
    13 C04         42.8690    -6.6830    -1.1060 C.ar     1 LIG 0.0000
    14 C05         42.1610    -6.2090    -0.0130 C.ar     1 LIG 0.0000
    15 C06         42.2690    -4.8750     0.3500 C.ar     1 LIG 0.0000
    16 C07         43.0840    -4.0190    -0.3730 C.ar     1 LIG 0.0000
    17 C08         43.7950    -4.4970    -1.4630 C.ar     1 LIG 0.0000
    18 C09         43.6900    -5.8300    -1.8270 C.ar     1 LIG 0.0000
    19 C11         40.4900   -10.4320    -2.9400 C.ar     1 LIG 0.0000
    20 C16         43.5760   -14.7530    -4.2020 C.ar     1 LIG 0.0000
    21 C18         44.0350   -16.9870    -3.4530 C.ar     1 LIG 0.0000
    22 C25         48.8170   -21.1970    -2.7420 C.ar     1 LIG 0.0000
    23 C27         44.5370   -19.2800    -4.1600 C.ar     1 LIG 0.0000
    24 C29         41.8380   -16.0530    -3.1770 C.ar     1 LIG 0.0000
    25 C31         40.0840   -17.4580    -2.4320 C.ar     1 LIG 0.0000
    26 C33         42.8750   -10.6300    -3.1140 C.ar     1 LIG 0.0000
    27 C34         44.3250   -10.1280    -3.0790 C.ar     1 LIG 0.0000
    28 C35         44.7920    -8.8640    -3.4200 C.ar     1 LIG 0.0000
    29 C37         46.5430   -10.0990    -2.8690 C.ar     1 LIG 0.0000
    30 C38         45.4530   -10.9180    -2.7420 C.ar     1 LIG 0.0000
    31 C39         45.6330   -12.2630    -2.3300 C.ar     1 LIG 0.0000
    32 C40         46.9090   -12.7470    -2.0540 C.ar     1 LIG 0.0000
    33 C41         48.0200   -11.9120    -2.1780 C.ar     1 LIG 0.0000
    34 C42         47.8450   -10.5950    -2.5840 C.ar     1 LIG 0.0000
    35 N14         41.2870   -13.8060    -3.9170 N.ar     1 LIG 0.0000
    36 N19         44.9260   -18.1220    -3.2600 N.ar     1 LIG 0.0000
    37 N23         47.3740   -21.3200    -2.8970 N.ar     1 LIG 0.0000
    38 N32         42.6790   -11.8890    -3.4570 N.ar     1 LIG 0.0000
    39 N36         46.1170    -8.8640    -3.2730 N.ar     1 LIG 0.0000
    40 O01         41.1080    -7.5660    -2.8990 O.2      1 LIG 0.0000
    41 O03         42.7770    -8.0320    -1.4590 O.2      1 LIG 0.0000
    42 O30         40.5110   -16.1580    -2.7400 O.2      1 LIG 0.0000
@<TRIPOS>BOND
     1   20    5 2
     2   20    4 1
     3   23   10 1
     4   23   36 1
     5    5   21 1
     6   35    4 1
     7   35    3 1
     8   10    8 1
     9    8    7 1
    10    8   37 1
    11    4   24 2
    12    6   36 1
    13    6    7 1
    14    3   38 2
    15    3    2 1
    16   38   26 1
    17   21   36 1
    18   21   11 2
    19   28   39 1
    20   28   27 2
    21    9   37 1
    22    2   19 2
    23   39   29 1
    24   24   11 1
    25   24   42 1
    26   26   27 1
    27   26    1 2
    28   27   30 1
    29   19    1 1
    30   40   12 2
    31   37   22 1
    32   29   30 2
    33   29   34 1
    34    1   12 1
    35   30   31 1
    36   42   25 1
    37   34   33 2
    38   12   41 1
    39   31   32 2
    40   33   32 1
    41   18   17 2
    42   18   13 1
    43   17   16 1
    44   41   13 1
    45   13   14 2
    46   16   15 2
    47   14   15 1
