V58
     RDKit          3D

 42 47  0  0  0  0  0  0  0  0999 V2000
   -2.5280   -0.4710    0.0890 C   0  0  0  0  0  0  0  0  0  0  0  0
   -0.2280   -0.0630   -0.1240 N   0  0  0  0  0  0  0  0  0  0  0  0
   -0.4180    1.1860    0.2860 C   0  0  0  0  0  0  0  0  0  0  0  0
    1.9650    1.5300    0.1780 C   0  0  0  0  0  0  0  0  0  0  0  0
    3.4940   -0.3170    0.1270 C   0  0  0  0  0  0  0  0  0  0  0  0
    5.8530   -1.4110   -0.2270 C   0  0  0  0  0  0  0  0  0  0  0  0
    7.2370   -1.9460   -0.6040 C   0  0  0  0  0  0  0  0  0  0  0  0
    8.2980   -1.2500    0.2520 C   0  0  0  0  0  0  0  0  0  0  0  0
   10.6790   -1.0680    0.6570 C   0  0  0  0  0  0  0  0  0  0  0  0
    8.2010    0.2630    0.0410 C   0  0  0  0  0  0  0  0  0  0  0  0
    4.2710    1.8980   -0.3970 C   0  0  0  0  0  0  0  0  0  0  0  0
   -3.6800   -1.3770   -0.0190 C   0  0  0  0  0  0  0  0  0  0  0  0
   -4.5850   -3.4820   -0.3010 C   0  0  0  0  0  0  0  0  0  0  0  0
   -5.4770   -3.4610   -1.3650 C   0  0  0  0  0  0  0  0  0  0  0  0
   -6.5870   -4.2830   -1.3490 C   0  0  0  0  0  0  0  0  0  0  0  0
   -6.8100   -5.1260   -0.2760 C   0  0  0  0  0  0  0  0  0  0  0  0
   -5.9240   -5.1470    0.7850 C   0  0  0  0  0  0  0  0  0  0  0  0
   -4.8120   -4.3280    0.7740 C   0  0  0  0  0  0  0  0  0  0  0  0
   -1.2370   -0.9070   -0.2340 C   0  0  0  0  0  0  0  0  0  0  0  0
    2.2200    0.1760    0.3350 C   0  0  0  0  0  0  0  0  0  0  0  0
    4.5220    0.5410   -0.2390 C   0  0  0  0  0  0  0  0  0  0  0  0
    9.7290   -3.1790   -0.0520 C   0  0  0  0  0  0  0  0  0  0  0  0
    6.7900    0.7340    0.3990 C   0  0  0  0  0  0  0  0  0  0  0  0
    2.9950    2.3940   -0.1890 C   0  0  0  0  0  0  0  0  0  0  0  0
    3.8500    4.5480   -0.7210 C   0  0  0  0  0  0  0  0  0  0  0  0
   -2.6920    0.8680    0.5170 C   0  0  0  0  0  0  0  0  0  0  0  0
   -4.0280    1.3870    0.8670 C   0  0  0  0  0  0  0  0  0  0  0  0
   -4.6660    1.2530    2.0610 C   0  0  0  0  0  0  0  0  0  0  0  0
   -6.0750    2.4260    0.7610 C   0  0  0  0  0  0  0  0  0  0  0  0
   -4.9300    2.1580   -0.0070 C   0  0  0  0  0  0  0  0  0  0  0  0
   -4.8470    2.6150   -1.3210 C   0  0  0  0  0  0  0  0  0  0  0  0
   -5.8930    3.3300   -1.8610 C   0  0  0  0  0  0  0  0  0  0  0  0
   -7.0250    3.5960   -1.1030 C   0  0  0  0  0  0  0  0  0  0  0  0
   -7.1200    3.1500    0.1970 C   0  0  0  0  0  0  0  0  0  0  0  0
    0.6700    2.0300    0.3840 N   0  0  0  0  0  0  0  0  0  0  0  0
    5.8110    0.0400   -0.4480 N   0  0  0  0  0  0  0  0  0  0  0  0
    9.6330   -1.7170   -0.1460 N   0  0  0  0  0  0  0  0  0  0  0  0
   -1.6180    1.6500    0.5990 N   0  0  0  0  0  0  0  0  0  0  0  0
   -5.8790    1.8640    2.0050 N   0  0  0  0  0  0  0  0  0  0  0  0
   -4.8060   -0.9530    0.1600 O   0  0  0  0  0  0  0  0  0  0  0  0
   -3.4900   -2.6780   -0.3170 O   0  0  0  0  0  0  0  0  0  0  0  0
    2.7470    3.7220   -0.3430 O   0  0  0  0  0  0  0  0  0  0  0  0
  1 12  1  0
  2 19  2  0
  3 38  2  0
  3  2  1  0
  4 24  2  0
  5 21  1  0
  6 36  1  0
  6  7  1  0
  8  7  1  0
  8 37  1  0
  9 37  1  0
 10  8  1  0
 12 41  1  0
 13 14  2  0
 14 15  1  0
 16 15  2  0
 17 16  1  0
 18 17  2  0
 18 13  1  0
 19  1  1  0
 20  5  2  0
 20  4  1  0
 21 36  1  0
 21 11  2  0
 23 10  1  0
 23 36  1  0
 24 11  1  0
 24 42  1  0
 26 27  1  0
 26  1  2  0
 27 30  1  0
 28 39  1  0
 28 27  2  0
 29 30  1  0
 29 34  2  0
 30 31  2  0
 31 32  1  0
 33 32  2  0
 34 33  1  0
 35  4  1  0
 35  3  1  0
 37 22  1  0
 38 26  1  0
 39 29  1  0
 40 12  2  0
 41 13  1  0
 42 25  1  0
M  END
$$$$
