W19
  CCTOOLS-0919241029

 57 61  0  0  0  0  0  0  0  0999 V2000
   -6.8950   -0.0550   -2.1170 C   0  0  0  0  0
   -1.4440   -0.0580   -1.1420 C   0  0  0  0  0
   -6.0000    0.7530   -1.4290 C   0  0  0  0  0
   -2.7900    0.0940   -0.8750 C   0  0  0  0  0
   -7.1960   -1.3100   -1.6460 C   0  0  0  0  0
   -5.1980   -1.6510    1.4200 C   0  0  0  0  0
   -0.9210    1.5240    0.5920 C   0  0  0  0  0
   -5.6700   -2.8650    1.6190 C   0  0  0  0  0
    2.0740    3.8090   -0.1110 C   0  0  0  0  0
   -5.7040   -0.9860    0.2300 C   0  0  0  0  0
    3.1080    1.4010   -0.6790 C   0  0  0  0  0
   -0.5050    0.6540   -0.4070 C   0  0  0  0  0
   -5.4060    0.3050   -0.2710 C   0  0  0  0  0
   -3.2050    0.9580    0.1270 C   0  0  0  0  0
   -6.6060   -1.7880   -0.4710 C   0  0  0  0  0
   -2.2680    1.6710    0.8620 C   0  0  0  0  0
    3.9410    2.5230   -0.4880 C   0  0  0  0  0
    1.7210    1.5650   -0.5270 C   0  0  0  0  0
    3.7070    0.1190   -1.0320 C   0  0  0  0  0
    4.7600   -0.3620   -0.3160 C   0  0  0  0  0
    5.3940   -1.5670   -0.7050 C   0  0  0  0  0
    5.2480    0.3950    0.8920 C   0  0  0  0  0
    6.0140    1.6490    0.4790 C   0  0  0  0  0
    7.0920   -3.2870   -0.3950 C   0  0  0  0  0
    8.2350   -3.5970    0.5730 C   0  0  0  0  0
    3.3850    3.6960   -0.2190 N   0  0  0  0  0
    1.2580    2.7840   -0.2520 N   0  0  0  0  0
    5.3080    2.3650   -0.5810 N   0  0  0  0  0
    0.8600    0.4960   -0.6740 N   0  0  0  0  0
    6.4360   -2.0400    0.0070 N   0  0  0  0  0
    4.9970   -2.1760   -1.6820 O   0  0  0  0  0
    7.7020   -3.8530    1.8740 O   0  0  0  0  0
   -4.5310    1.1040    0.3930 O   0  0  0  0  0
   -6.7970   -3.3280    0.3590 S   0  0  0  0  0
   -2.7880    2.7530    2.1160 CL  0  0  0  0  0
   -7.3600    0.3060   -3.0220 H   0  0  0  0  0
   -1.1210   -0.7350   -1.9190 H   0  0  0  0  0
   -5.7680    1.7390   -1.8050 H   0  0  0  0  0
   -3.5200   -0.4610   -1.4460 H   0  0  0  0  0
   -7.8940   -1.9330   -2.1880 H   0  0  0  0  0
   -4.4900   -1.1850    2.0890 H   0  0  0  0  0
   -0.1910    2.0780    1.1640 H   0  0  0  0  0
   -5.3990   -3.4940    2.4540 H   0  0  0  0  0
    1.6540    4.7790    0.1070 H   0  0  0  0  0
    3.3150   -0.4490   -1.8620 H   0  0  0  0  0
    4.3930    0.6830    1.5030 H   0  0  0  0  0
    5.9050   -0.2490    1.4760 H   0  0  0  0  0
    6.1220    2.3040    1.3430 H   0  0  0  0  0
    7.0030    1.3630    0.1210 H   0  0  0  0  0
    7.4890   -3.1800   -1.4050 H   0  0  0  0  0
    6.3670   -4.1020   -0.3750 H   0  0  0  0  0
    8.7790   -4.4750    0.2240 H   0  0  0  0  0
    8.9130   -2.7450    0.6190 H   0  0  0  0  0
    5.7940    2.7240   -1.3400 H   0  0  0  0  0
    1.2010   -0.3660   -0.9630 H   0  0  0  0  0
    6.7520   -1.5550    0.7850 H   0  0  0  0  0
    8.3720   -4.0570    2.5400 H   0  0  0  0  0
  1  5  2  0  0  0
  1  3  1  0  0  0
  1 36  1  0  0  0
  2 12  1  0  0  0
  2 37  1  0  0  0
  3 13  2  0  0  0
  3 38  1  0  0  0
  4  2  2  0  0  0
  4 39  1  0  0  0
  5 15  1  0  0  0
  5 40  1  0  0  0
  6  8  2  0  0  0
  6 41  1  0  0  0
  7 12  2  0  0  0
  7 42  1  0  0  0
  8 43  1  0  0  0
  9 26  2  0  0  0
  9 44  1  0  0  0
 10  6  1  0  0  0
 11 19  1  0  0  0
 11 17  2  0  0  0
 12 29  1  0  0  0
 13 10  1  0  0  0
 13 33  1  0  0  0
 14 16  2  0  0  0
 14  4  1  0  0  0
 15 34  1  0  0  0
 15 10  2  0  0  0
 16  7  1  0  0  0
 17 28  1  0  0  0
 18 11  1  0  0  0
 19 20  2  0  0  0
 19 45  1  0  0  0
 20 21  1  0  0  0
 20 22  1  0  0  0
 21 31  2  0  0  0
 22 46  1  0  0  0
 22 47  1  0  0  0
 23 22  1  0  0  0
 23 48  1  0  0  0
 23 49  1  0  0  0
 24 30  1  0  0  0
 24 25  1  0  0  0
 24 50  1  0  0  0
 24 51  1  0  0  0
 25 32  1  0  0  0
 25 52  1  0  0  0
 25 53  1  0  0  0
 26 17  1  0  0  0
 27 18  2  0  0  0
 27  9  1  0  0  0
 28 23  1  0  0  0
 28 54  1  0  0  0
 29 18  1  0  0  0
 29 55  1  0  0  0
 30 21  1  0  0  0
 30 56  1  0  0  0
 32 57  1  0  0  0
 33 14  1  0  0  0
 34  8  1  0  0  0
 35 16  1  0  0  0
M  END
$$$$
