@<TRIPOS>MOLECULE
W2P
39 42 0 0 0
SMALL
NO_CHARGES

@<TRIPOS>ATOM
     1 C1         146.5290    24.7500    50.2060 C.ar     1 LIG 0.0000
     2 C2         147.7900    25.2830    50.3750 C.ar     1 LIG 0.0000
     3 C3         148.0040    26.6420    50.3920 C.ar     1 LIG 0.0000
     4 C4         146.9420    27.4940    50.2150 C.ar     1 LIG 0.0000
     5 C5         145.6670    26.9730    50.0390 C.ar     1 LIG 0.0000
     6 C6         145.4530    25.5960    50.0330 C.ar     1 LIG 0.0000
     7 O7         147.2810    28.8440    50.2580 O.2      1 LIG 0.0000
     8 C8         146.3570    29.8140    49.8900 C.ar     1 LIG 0.0000
     9 CL9        149.5950    27.2700    50.6370 CL       1 LIG 0.0000
    10 C10        146.0680    30.8190    50.7800 C.ar     1 LIG 0.0000
    11 C11        145.1700    31.8040    50.4360 C.ar     1 LIG 0.0000
    12 C12        144.5740    31.7810    49.1950 C.ar     1 LIG 0.0000
    13 C13        144.8730    30.7730    48.3000 C.ar     1 LIG 0.0000
    14 C14        145.7730    29.7910    48.6470 C.ar     1 LIG 0.0000
    15 C15        144.2400    30.7360    46.9430 C.ar     1 LIG 0.0000
    16 F16        143.9020    29.4770    46.5120 F        1 LIG 0.0000
    17 F17        145.0850    31.2220    45.9920 F        1 LIG 0.0000
    18 F18        143.1050    31.4930    46.8770 F        1 LIG 0.0000
    19 N19        147.7610    20.9810    53.4790 N.ar     1 LIG 0.0000
    20 C20        147.6180    22.3040    53.4810 C.ar     1 LIG 0.0000
    21 N21        147.2300    23.0940    52.4790 N.ar     1 LIG 0.0000
    22 C22        146.9230    22.5500    51.2910 C.ar     1 LIG 0.0000
    23 C23        147.4520    20.4260    52.2930 C.ar     1 LIG 0.0000
    24 C24        147.0290    21.1740    51.2090 C.ar     1 LIG 0.0000
    25 N25        146.8250    20.2780    50.1850 N.ar     1 LIG 0.0000
    26 C26        147.0870    18.9960    50.6020 C.ar     1 LIG 0.0000
    27 C27        147.4780    19.0530    51.9210 C.ar     1 LIG 0.0000
    28 C28        146.4090    20.6230    48.8210 C.ar     1 LIG 0.0000
    29 C29        145.2170    19.8550    48.3060 C.ar     1 LIG 0.0000
    30 N30        144.0870    20.3480    49.0240 N.ar     1 LIG 0.0000
    31 C31        143.4550    19.5260    49.9110 C.ar     1 LIG 0.0000
    32 C32        142.3150    20.2540    50.5470 C.ar     1 LIG 0.0000
    33 O33        143.7450    18.3540    50.1450 O.2      1 LIG 0.0000
    34 N34        146.5190    23.3390    50.2010 N.ar     1 LIG 0.0000
    35 C35        141.0470    19.5800    50.0640 C.ar     1 LIG 0.0000
    36 C36        140.4300    20.2940    48.8810 C.ar     1 LIG 0.0000
    37 N37        139.1550    19.6570    48.5670 N.ar     1 LIG 0.0000
    38 C38        138.0750    20.5940    48.8800 C.ar     1 LIG 0.0000
    39 C39        139.1450    19.4210    47.1290 C.ar     1 LIG 0.0000
@<TRIPOS>BOND
     1   17   15 1
     2   16   15 1
     3   18   15 1
     4   15   13 1
     5   39   37 1
     6   13   14 2
     7   13   12 1
     8   29   28 1
     9   29   30 1
    10   37   38 1
    11   37   36 1
    12   14    8 1
    13   28   25 1
    14   36   35 1
    15   30   31 1
    16   12   11 2
    17    8    7 1
    18    8   10 2
    19   31   33 2
    20   31   32 1
    21    6    5 2
    22    6    1 1
    23    5    4 1
    24   35   32 1
    25   25   26 1
    26   25   24 1
    27   34    1 1
    28   34   22 1
    29    1    2 2
    30    4    7 1
    31    4    3 2
    32    2    3 1
    33    3    9 1
    34   11   10 1
    35   26   27 2
    36   24   22 2
    37   24   23 1
    38   22   21 1
    39   27   23 1
    40   23   19 2
    41   21   20 2
    42   19   20 1
