W2R
     RDKit          3D

 40 44  0  0  0  0  0  0  0  0999 V2000
    3.2610    4.6900   -0.0340 C   0  0  0  0  0  0  0  0  0  0  0  0
    4.0060    3.8260    0.7450 C   0  0  0  0  0  0  0  0  0  0  0  0
   -1.3170    1.3170    0.2240 C   0  0  0  0  0  0  0  0  0  0  0  0
    2.3690    4.1900   -0.9640 C   0  0  0  0  0  0  0  0  0  0  0  0
   -0.1060    1.8000   -0.2300 C   0  0  0  0  0  0  0  0  0  0  0  0
   -6.9300    0.0980    2.9830 C   0  0  0  0  0  0  0  0  0  0  0  0
    2.9720    1.9490   -0.3430 C   0  0  0  0  0  0  0  0  0  0  0  0
   -2.0140    0.9310   -2.0450 C   0  0  0  0  0  0  0  0  0  0  0  0
   -7.0510   -0.8460    2.0300 C   0  0  0  0  0  0  0  0  0  0  0  0
   -4.0450    2.4350    2.6570 C   0  0  0  0  0  0  0  0  0  0  0  0
   -5.7460    0.8860    2.6560 C   0  0  0  0  0  0  0  0  0  0  0  0
   -5.2200    0.3230    1.4790 C   0  0  0  0  0  0  0  0  0  0  0  0
    3.8640    2.4530    0.5920 C   0  0  0  0  0  0  0  0  0  0  0  0
   -2.2740    0.8780   -0.6820 C   0  0  0  0  0  0  0  0  0  0  0  0
    2.2220    2.8190   -1.1200 C   0  0  0  0  0  0  0  0  0  0  0  0
    0.1540    1.8530   -1.5910 C   0  0  0  0  0  0  0  0  0  0  0  0
   -0.8040    1.4210   -2.4990 C   0  0  0  0  0  0  0  0  0  0  0  0
   -4.0630    0.8920    0.9370 C   0  0  0  0  0  0  0  0  0  0  0  0
    5.0280    0.3970    0.8710 C   0  0  0  0  0  0  0  0  0  0  0  0
    8.0350   -3.9770    1.0020 C   0  0  0  0  0  0  0  0  0  0  0  0
    7.9340   -2.9470   -0.1240 C   0  0  0  0  0  0  0  0  0  0  0  0
    6.6640   -4.1490    1.6600 C   0  0  0  0  0  0  0  0  0  0  0  0
    7.4740   -1.6060    0.4510 C   0  0  0  0  0  0  0  0  0  0  0  0
    6.2030   -2.8080    2.2360 C   0  0  0  0  0  0  0  0  0  0  0  0
    6.1030   -1.7770    1.1090 C   0  0  0  0  0  0  0  0  0  0  0  0
   -5.8460   -1.5850   -0.0450 C   0  0  0  0  0  0  0  0  0  0  0  0
   -4.7340   -2.5970    0.2410 C   0  0  0  0  0  0  0  0  0  0  0  0
   -3.4150   -5.2560   -2.0150 C   0  0  0  0  0  0  0  0  0  0  0  0
   -3.5270   -4.4210   -0.7380 C   0  0  0  0  0  0  0  0  0  0  0  0
   -5.1300    1.9340    3.2070 N   0  0  0  0  0  0  0  0  0  0  0  0
   -3.5150    1.9340    1.5560 N   0  0  0  0  0  0  0  0  0  0  0  0
   -6.0370   -0.7260    1.1260 N   0  0  0  0  0  0  0  0  0  0  0  0
   -3.4990    0.3810   -0.2220 N   0  0  0  0  0  0  0  0  0  0  0  0
    4.6220    1.5780    1.3780 N   0  0  0  0  0  0  0  0  0  0  0  0
    5.6620   -0.4930    1.6600 N   0  0  0  0  0  0  0  0  0  0  0  0
    4.8220    0.1340   -0.2980 O   0  0  0  0  0  0  0  0  0  0  0  0
   -2.9710   -4.4260   -3.0890 O   0  0  0  0  0  0  0  0  0  0  0  0
    1.3470    2.3300   -2.0380 O   0  0  0  0  0  0  0  0  0  0  0  0
   -4.5480   -3.4350   -0.9010 O   0  0  0  0  0  0  0  0  0  0  0  0
   -0.4780    1.4880   -4.2020 Cl  0  0  0  0  0  0  0  0  0  0  0  0
  2  1  2  0
  4  1  1  0
  5  3  2  0
  7 13  2  0
  7 15  1  0
  8 14  2  0
  9  6  2  0
 10 30  1  0
 11  6  1  0
 12 32  1  0
 12 11  1  0
 13  2  1  0
 14  3  1  0
 14 33  1  0
 15  4  2  0
 16  5  1  0
 17 16  2  0
 17  8  1  0
 18 12  2  0
 19 34  1  0
 20 21  1  0
 21 23  1  0
 22 20  1  0
 22 24  1  0
 24 25  1  0
 25 23  1  0
 25 35  1  0
 26 32  1  0
 26 27  1  0
 28 29  1  0
 30 11  2  0
 31 18  1  0
 31 10  2  0
 32  9  1  0
 33 18  1  0
 34 13  1  0
 35 19  1  0
 36 19  2  0
 37 28  1  0
 38 15  1  0
 38 16  1  0
 39 27  1  0
 39 29  1  0
 40 17  1  0
M  END
$$$$
