@<TRIPOS>MOLECULE
W2R
40 44 0 0 0
SMALL
NO_CHARGES

@<TRIPOS>ATOM
     1 C1           5.4560    16.1160    46.4940 C.ar     1 LIG 0.0000
     2 C2           4.5280    16.9110    45.8490 C.ar     1 LIG 0.0000
     3 C3           4.6750    10.7990    46.8950 C.ar     1 LIG 0.0000
     4 C4           5.7160    14.8610    45.9700 C.ar     1 LIG 0.0000
     5 C5           4.5450    11.9180    46.1060 C.ar     1 LIG 0.0000
     6 C6           8.1300     5.2950    49.6710 C.ar     1 LIG 0.0000
     7 C7           4.1270    15.2310    44.1940 C.ar     1 LIG 0.0000
     8 C8           6.5170    10.0600    45.5680 C.ar     1 LIG 0.0000
     9 C9           6.7800     5.0150    49.6240 C.ar     1 LIG 0.0000
    10 C10          9.3050     8.3340    48.1570 C.ar     1 LIG 0.0000
    11 C11          8.3420     6.5280    49.0090 C.ar     1 LIG 0.0000
    12 C12          7.1150     6.9990    48.5740 C.ar     1 LIG 0.0000
    13 C13          3.8620    16.4740    44.7190 C.ar     1 LIG 0.0000
    14 C14          5.6630     9.8700    46.6410 C.ar     1 LIG 0.0000
    15 C15          5.0560    14.4370    44.8300 C.ar     1 LIG 0.0000
    16 C16          5.4080    12.1030    45.0460 C.ar     1 LIG 0.0000
    17 C17          6.3930    11.1810    44.7670 C.ar     1 LIG 0.0000
    18 C18          7.0290     8.1880    47.8800 C.ar     1 LIG 0.0000
    19 C19          2.1950    17.1610    42.9610 C.ar     1 LIG 0.0000
    20 C20         -0.7060    19.6670    39.2140 C.ar     1 LIG 0.0000
    21 C21         -1.4180    19.3690    40.5060 C.ar     1 LIG 0.0000
    22 C22          0.4580    18.6950    39.0020 C.ar     1 LIG 0.0000
    23 C23         -0.4180    19.4270    41.6450 C.ar     1 LIG 0.0000
    24 C24          1.4260    18.7470    40.1680 C.ar     1 LIG 0.0000
    25 C25          0.6770    18.4010    41.4380 C.ar     1 LIG 0.0000
    26 C26          4.7550     6.0500    48.7010 C.ar     1 LIG 0.0000
    27 C27          3.9410     6.6060    49.8330 C.ar     1 LIG 0.0000
    28 C28          2.3010     9.6130    49.5660 C.ar     1 LIG 0.0000
    29 C29          3.0480     8.6650    50.4530 C.ar     1 LIG 0.0000
    30 N30          9.4960     7.1960    48.8190 N.ar     1 LIG 0.0000
    31 N31          8.1730     8.8550    47.6800 N.ar     1 LIG 0.0000
    32 N32          6.1830     6.0500    48.9590 N.ar     1 LIG 0.0000
    33 N33          5.7890     8.7040    47.4220 N.ar     1 LIG 0.0000
    34 N34          2.9300    17.3440    44.1180 N.ar     1 LIG 0.0000
    35 N35          1.5540    18.3230    42.5940 N.ar     1 LIG 0.0000
    36 O36          2.0300    16.1120    42.3630 O.2      1 LIG 0.0000
    37 O37          1.5420     8.8190    48.6810 O.2      1 LIG 0.0000
    38 O38          5.3030    13.2140    44.2270 O.2      1 LIG 0.0000
    39 O39          4.0050     8.0080    49.6250 O.2      1 LIG 0.0000
    40 CL1          7.4610    11.4160    43.4250 CL       1 LIG 0.0000
@<TRIPOS>BOND
     1   22   20 1
     2   22   24 1
     3   20   21 1
     4   24   25 1
     5   21   23 1
     6   25   23 1
     7   25   35 1
     8   36   19 2
     9   35   19 1
    10   19   34 1
    11   40   17 1
    12   34   13 1
    13    7   13 2
    14    7   15 1
    15   38   15 1
    16   38   16 1
    17   13    2 1
    18   17   16 2
    19   17    8 1
    20   15    4 2
    21   16    5 1
    22    8   14 2
    23    2    1 2
    24    4    1 1
    25    5    3 2
    26   14    3 1
    27   14   33 1
    28   33   18 1
    29   31   18 2
    30   31   10 1
    31   18   12 1
    32   10   30 2
    33   12   32 1
    34   12   11 2
    35   37   28 1
    36   26   32 1
    37   26   27 1
    38   30   11 1
    39   32    9 1
    40   11    6 1
    41   28   29 1
    42    9    6 2
    43   39   27 1
    44   39   29 1
