W2R
  CCTOOLS-0919241029

 73 77  0  0  0  0  0  0  0  0999 V2000
    3.2610    4.6900   -0.0340 C   0  0  0  0  0
    4.0060    3.8260    0.7450 C   0  0  0  0  0
   -1.3170    1.3170    0.2240 C   0  0  0  0  0
    2.3690    4.1900   -0.9640 C   0  0  0  0  0
   -0.1060    1.8000   -0.2300 C   0  0  0  0  0
   -6.9300    0.0980    2.9830 C   0  0  0  0  0
    2.9720    1.9490   -0.3430 C   0  0  0  0  0
   -2.0140    0.9310   -2.0450 C   0  0  0  0  0
   -7.0510   -0.8460    2.0300 C   0  0  0  0  0
   -4.0450    2.4350    2.6570 C   0  0  0  0  0
   -5.7460    0.8860    2.6560 C   0  0  0  0  0
   -5.2200    0.3230    1.4790 C   0  0  0  0  0
    3.8640    2.4530    0.5920 C   0  0  0  0  0
   -2.2740    0.8780   -0.6820 C   0  0  0  0  0
    2.2220    2.8190   -1.1200 C   0  0  0  0  0
    0.1540    1.8530   -1.5910 C   0  0  0  0  0
   -0.8040    1.4210   -2.4990 C   0  0  0  0  0
   -4.0630    0.8920    0.9370 C   0  0  0  0  0
    5.0280    0.3970    0.8710 C   0  0  0  0  0
    8.0350   -3.9770    1.0020 C   0  0  0  0  0
    7.9340   -2.9470   -0.1240 C   0  0  0  0  0
    6.6640   -4.1490    1.6600 C   0  0  0  0  0
    7.4740   -1.6060    0.4510 C   0  0  0  0  0
    6.2030   -2.8080    2.2360 C   0  0  0  0  0
    6.1030   -1.7770    1.1090 C   0  0  0  0  0
   -5.8460   -1.5850   -0.0450 C   0  0  0  0  0
   -4.7340   -2.5970    0.2410 C   0  0  0  0  0
   -3.4150   -5.2560   -2.0150 C   0  0  0  0  0
   -3.5270   -4.4210   -0.7380 C   0  0  0  0  0
   -5.1300    1.9340    3.2070 N   0  0  0  0  0
   -3.5150    1.9340    1.5560 N   0  0  0  0  0
   -6.0370   -0.7260    1.1260 N   0  0  0  0  0
   -3.4990    0.3810   -0.2220 N   0  0  0  0  0
    4.6220    1.5780    1.3780 N   0  0  0  0  0
    5.6620   -0.4930    1.6600 N   0  0  0  0  0
    4.8220    0.1340   -0.2980 O   0  0  0  0  0
   -2.9710   -4.4260   -3.0890 O   0  0  0  0  0
    1.3470    2.3300   -2.0380 O   0  0  0  0  0
   -4.5480   -3.4350   -0.9010 O   0  0  0  0  0
   -0.4780    1.4880   -4.2020 CL  0  0  0  0  0
    3.3740    5.7570    0.0860 H   0  0  0  0  0
    4.7010    4.2190    1.4730 H   0  0  0  0  0
   -1.5190    1.2760    1.2850 H   0  0  0  0  0
    1.7840    4.8680   -1.5680 H   0  0  0  0  0
    0.6390    2.1370    0.4750 H   0  0  0  0  0
   -7.5870    0.2460    3.8270 H   0  0  0  0  0
    2.8590    0.8820   -0.4640 H   0  0  0  0  0
   -2.7570    0.5900   -2.7500 H   0  0  0  0  0
   -7.8350   -1.5880    1.9880 H   0  0  0  0  0
   -3.5680    3.2830    3.1250 H   0  0  0  0  0
    8.3630   -4.9330    0.5920 H   0  0  0  0  0
    8.7540   -3.6350    1.7450 H   0  0  0  0  0
    8.9100   -2.8250   -0.5930 H   0  0  0  0  0
    7.2140   -3.2900   -0.8680 H   0  0  0  0  0
    5.9440   -4.4920    0.9170 H   0  0  0  0  0
    6.7360   -4.8830    2.4630 H   0  0  0  0  0
    8.1930   -1.2630    1.1940 H   0  0  0  0  0
    7.4020   -0.8720   -0.3510 H   0  0  0  0  0
    5.2270   -2.9300    2.7040 H   0  0  0  0  0
    6.9230   -2.4650    2.9790 H   0  0  0  0  0
    5.3830   -2.1200    0.3660 H   0  0  0  0  0
   -5.5680   -0.9730   -0.9030 H   0  0  0  0  0
   -6.7730   -2.1150   -0.2620 H   0  0  0  0  0
   -3.8070   -2.0670    0.4580 H   0  0  0  0  0
   -5.0120   -3.2090    1.1000 H   0  0  0  0  0
   -2.7000   -6.0640   -1.8600 H   0  0  0  0  0
   -4.3900   -5.6770   -2.2600 H   0  0  0  0  0
   -3.7800   -5.0710    0.1000 H   0  0  0  0  0
   -2.5740   -3.9290   -0.5410 H   0  0  0  0  0
   -3.9530   -0.3220   -0.7130 H   0  0  0  0  0
    4.8570    1.8210    2.2870 H   0  0  0  0  0
    5.8260   -0.2840    2.5930 H   0  0  0  0  0
   -2.8770   -4.8900   -3.9330 H   0  0  0  0  0
  1 41  1  0  0  0
  2  1  2  0  0  0
  2 42  1  0  0  0
  3 43  1  0  0  0
  4  1  1  0  0  0
  4 44  1  0  0  0
  5  3  2  0  0  0
  5 45  1  0  0  0
  6 46  1  0  0  0
  7 13  2  0  0  0
  7 15  1  0  0  0
  7 47  1  0  0  0
  8 14  2  0  0  0
  8 48  1  0  0  0
  9  6  2  0  0  0
  9 49  1  0  0  0
 10 30  2  0  0  0
 10 50  1  0  0  0
 11  6  1  0  0  0
 12 32  1  0  0  0
 12 11  2  0  0  0
 13  2  1  0  0  0
 14  3  1  0  0  0
 14 33  1  0  0  0
 15  4  2  0  0  0
 16  5  1  0  0  0
 17 16  2  0  0  0
 17  8  1  0  0  0
 18 12  1  0  0  0
 19 34  1  0  0  0
 20 21  1  0  0  0
 20 51  1  0  0  0
 20 52  1  0  0  0
 21 23  1  0  0  0
 21 53  1  0  0  0
 21 54  1  0  0  0
 22 20  1  0  0  0
 22 24  1  0  0  0
 22 55  1  0  0  0
 22 56  1  0  0  0
 23 57  1  0  0  0
 23 58  1  0  0  0
 24 25  1  0  0  0
 24 59  1  0  0  0
 24 60  1  0  0  0
 25 23  1  0  0  0
 25 35  1  0  0  0
 25 61  1  0  0  0
 26 32  1  0  0  0
 26 27  1  0  0  0
 26 62  1  0  0  0
 26 63  1  0  0  0
 27 64  1  0  0  0
 27 65  1  0  0  0
 28 29  1  0  0  0
 28 66  1  0  0  0
 28 67  1  0  0  0
 29 68  1  0  0  0
 29 69  1  0  0  0
 30 11  1  0  0  0
 31 18  2  0  0  0
 31 10  1  0  0  0
 32  9  1  0  0  0
 33 18  1  0  0  0
 33 70  1  0  0  0
 34 13  1  0  0  0
 34 71  1  0  0  0
 35 19  1  0  0  0
 35 72  1  0  0  0
 36 19  2  0  0  0
 37 28  1  0  0  0
 37 73  1  0  0  0
 38 15  1  0  0  0
 38 16  1  0  0  0
 39 27  1  0  0  0
 39 29  1  0  0  0
 40 17  1  0  0  0
M  END
$$$$
