W32
  CCTOOLS-0919241029

 62 65  0  0  0  0  0  0  0  0999 V2000
   -6.4460   -3.0820    1.4180 C   0  0  0  0  0
   -7.4150   -3.0140    0.4340 C   0  0  0  0  0
   -2.1570   -0.4400   -0.3090 C   0  0  0  0  0
   -5.7210   -1.9550    1.7530 C   0  0  0  0  0
   -3.4610   -0.5260    0.1350 C   0  0  0  0  0
   -6.9380   -0.6900    0.1140 C   0  0  0  0  0
   -1.8630    1.5900    0.9460 C   0  0  0  0  0
    0.3580    4.2310   -0.7410 C   0  0  0  0  0
    1.9050    2.0480   -0.9140 C   0  0  0  0  0
   -7.6600   -1.8190   -0.2180 C   0  0  0  0  0
   -1.3530    0.6170    0.0970 C   0  0  0  0  0
   -5.9650   -0.7550    1.1020 C   0  0  0  0  0
   -3.9700    0.4430    0.9880 C   0  0  0  0  0
   -3.1670    1.5000    1.3950 C   0  0  0  0  0
    2.4420    3.3360   -1.1130 C   0  0  0  0  0
    0.5440    1.9340   -0.5840 C   0  0  0  0  0
    2.7700    0.8830   -1.0620 C   0  0  0  0  0
    3.9770    0.8470   -0.4340 C   0  0  0  0  0
    4.8530   -0.2470   -0.6390 C   0  0  0  0  0
    4.3770    1.9750    0.4810 C   0  0  0  0  0
    4.7550    3.2190   -0.3190 C   0  0  0  0  0
   10.7660   -2.1530    1.3690 C   0  0  0  0  0
    6.9540   -1.4120   -0.2280 C   0  0  0  0  0
    8.2300   -1.2040    0.5900 C   0  0  0  0  0
   -8.7170   -1.7490   -1.2900 C   0  0  0  0  0
    1.6370    4.3870   -1.0280 N   0  0  0  0  0
   -0.1830    3.0500   -0.5180 N   0  0  0  0  0
    3.7880    3.4660   -1.3850 N   0  0  0  0  0
   -0.0290    0.7010   -0.3490 N   0  0  0  0  0
    6.0470   -0.2800   -0.0160 N   0  0  0  0  0
    4.5270   -1.1580   -1.3800 O   0  0  0  0  0
    9.7710   -2.6000   -1.0310 O   0  0  0  0  0
    8.7490   -3.7740    0.8630 O   0  0  0  0  0
   -5.2530    0.3540    1.4300 O   0  0  0  0  0
   -8.1300   -1.3560   -2.4980 F   0  0  0  0  0
   -9.3070   -3.0080   -1.4460 F   0  0  0  0  0
   -9.6940   -0.8180   -0.9220 F   0  0  0  0  0
    9.3520   -2.6040    0.3260 S   0  0  0  0  0
   -3.8030    2.7130    2.4620 CL  0  0  0  0  0
   -6.2600   -4.0160    1.9280 H   0  0  0  0  0
   -7.9810   -3.8960    0.1730 H   0  0  0  0  0
   -1.7610   -1.1980   -0.9700 H   0  0  0  0  0
   -4.9640   -2.0090    2.5220 H   0  0  0  0  0
   -4.0870   -1.3480   -0.1810 H   0  0  0  0  0
   -7.1290    0.2430   -0.3950 H   0  0  0  0  0
   -1.2380    2.4120    1.2630 H   0  0  0  0  0
   -0.2700    5.1080   -0.6820 H   0  0  0  0  0
    2.4530    0.0490   -1.6700 H   0  0  0  0  0
    3.5430    2.2140    1.1410 H   0  0  0  0  0
    5.2310    1.6640    1.0820 H   0  0  0  0  0
    4.7790    4.0810    0.3490 H   0  0  0  0  0
    5.7420    3.0780   -0.7570 H   0  0  0  0  0
   10.4380   -2.0560    2.4040 H   0  0  0  0  0
   11.5300   -2.9280    1.3010 H   0  0  0  0  0
   11.1800   -1.2040    1.0290 H   0  0  0  0  0
    7.2070   -1.4800   -1.2860 H   0  0  0  0  0
    6.4650   -2.3330    0.0890 H   0  0  0  0  0
    8.7180   -0.2820    0.2720 H   0  0  0  0  0
    7.9770   -1.1350    1.6470 H   0  0  0  0  0
    4.0880    3.7180   -2.2730 H   0  0  0  0  0
    0.4870   -0.1080   -0.4930 H   0  0  0  0  0
    6.3070    0.4450    0.5740 H   0  0  0  0  0
  1  2  2  0  0  0
  1  4  1  0  0  0
  1 40  1  0  0  0
  2 10  1  0  0  0
  2 41  1  0  0  0
  3 11  1  0  0  0
  3 42  1  0  0  0
  4 12  2  0  0  0
  4 43  1  0  0  0
  5  3  2  0  0  0
  5 44  1  0  0  0
  6 45  1  0  0  0
  7 11  2  0  0  0
  7 46  1  0  0  0
  8 26  2  0  0  0
  8 47  1  0  0  0
  9 17  1  0  0  0
  9 15  2  0  0  0
 10 25  1  0  0  0
 10  6  2  0  0  0
 11 29  1  0  0  0
 12  6  1  0  0  0
 12 34  1  0  0  0
 13 14  2  0  0  0
 13  5  1  0  0  0
 14  7  1  0  0  0
 15 28  1  0  0  0
 16  9  1  0  0  0
 17 18  2  0  0  0
 17 48  1  0  0  0
 18 19  1  0  0  0
 18 20  1  0  0  0
 19 31  2  0  0  0
 20 49  1  0  0  0
 20 50  1  0  0  0
 21 20  1  0  0  0
 21 51  1  0  0  0
 21 52  1  0  0  0
 22 53  1  0  0  0
 22 54  1  0  0  0
 22 55  1  0  0  0
 23 24  1  0  0  0
 23 56  1  0  0  0
 23 57  1  0  0  0
 24 38  1  0  0  0
 24 58  1  0  0  0
 24 59  1  0  0  0
 25 36  1  0  0  0
 25 35  1  0  0  0
 26 15  1  0  0  0
 27 16  2  0  0  0
 27  8  1  0  0  0
 28 21  1  0  0  0
 28 60  1  0  0  0
 29 16  1  0  0  0
 29 61  1  0  0  0
 30 23  1  0  0  0
 30 19  1  0  0  0
 30 62  1  0  0  0
 32 38  2  0  0  0
 34 13  1  0  0  0
 37 25  1  0  0  0
 38 33  2  0  0  0
 38 22  1  0  0  0
 39 14  1  0  0  0
M  END
$$$$
