@<TRIPOS>MOLECULE
W32
39 42 0 0 0
SMALL
NO_CHARGES

@<TRIPOS>ATOM
     1 C1          17.5190    28.9880     5.8000 C.ar     1 LIG 0.0000
     2 C2          16.2880    28.4130     6.0830 C.ar     1 LIG 0.0000
     3 C3          17.4000    32.3980    11.0680 C.ar     1 LIG 0.0000
     4 C4          17.7630    30.2640     6.2680 C.ar     1 LIG 0.0000
     5 C5          17.6200    31.9920     9.7720 C.ar     1 LIG 0.0000
     6 C6          15.6040    30.4050     7.2690 C.ar     1 LIG 0.0000
     7 C7          15.7850    33.9890    10.3140 C.ar     1 LIG 0.0000
     8 C8          12.7520    33.5640    13.3770 C.ar     1 LIG 0.0000
     9 C9          14.9460    34.4890    14.5730 C.ar     1 LIG 0.0000
    10 C10         15.3680    29.1310     6.8120 C.ar     1 LIG 0.0000
    11 C11         16.4800    33.3950    11.3520 C.ar     1 LIG 0.0000
    12 C12         16.8280    30.9630     6.9940 C.ar     1 LIG 0.0000
    13 C13         16.9230    32.5960     8.7430 C.ar     1 LIG 0.0000
    14 C14         15.9940    33.5900     9.0100 C.ar     1 LIG 0.0000
    15 C15         13.7040    34.5600    15.1900 C.ar     1 LIG 0.0000
    16 C16         14.9920    33.9320    13.3030 C.ar     1 LIG 0.0000
    17 C17         16.1650    35.0250    15.1700 C.ar     1 LIG 0.0000
    18 C18         16.4430    35.1930    16.4660 C.ar     1 LIG 0.0000
    19 C19         17.7330    35.8640    16.8090 C.ar     1 LIG 0.0000
    20 C20         15.5720    34.8110    17.5840 C.ar     1 LIG 0.0000
    21 C21         14.3150    35.6350    17.4110 C.ar     1 LIG 0.0000
    22 C22         23.0460    35.0340    18.6720 C.ar     1 LIG 0.0000
    23 C23         20.0470    36.3250    16.1550 C.ar     1 LIG 0.0000
    24 C24         20.7350    35.5430    17.2570 C.ar     1 LIG 0.0000
    25 C25         14.0370    28.5200     7.1250 C.ar     1 LIG 0.0000
    26 N26         12.6030    34.0900    14.5880 N.ar     1 LIG 0.0000
    27 N27         13.8950    33.4590    12.6930 N.ar     1 LIG 0.0000
    28 N28         13.3990    35.0580    16.4550 N.ar     1 LIG 0.0000
    29 N29         16.2500    33.8530    12.6500 N.ar     1 LIG 0.0000
    30 N30         18.7330    35.7890    15.8670 N.ar     1 LIG 0.0000
    31 O31         17.8290    36.4860    17.8570 O.2      1 LIG 0.0000
    32 O32         23.0670    36.4380    16.4730 O.2      1 LIG 0.0000
    33 O33         22.0190    37.4330    18.5560 O.2      1 LIG 0.0000
    34 O34         17.1150    32.2480     7.4230 O.2      1 LIG 0.0000
    35 F35         14.0960    27.6060     8.1180 F        1 LIG 0.0000
    36 F36         13.1680    29.4420     7.5640 F        1 LIG 0.0000
    37 F37         13.5550    27.8590     6.0430 F        1 LIG 0.0000
    38 S38         22.2850    36.2990    17.6880 S.2      1 LIG 0.0000
    39 CL1         15.1360    34.3390     7.7010 CL       1 LIG 0.0000
@<TRIPOS>BOND
     1    1    2 2
     2    1    4 1
     3   37   25 1
     4    2   10 1
     5    4   12 2
     6   10   25 1
     7   10    6 2
     8   12    6 1
     9   12   34 1
    10   25   36 1
    11   25   35 1
    12   34   13 1
    13   39   14 1
    14   13   14 2
    15   13    5 1
    16   14    7 1
    17    5    3 2
    18    7   11 2
    19    3   11 1
    20   11   29 1
    21   29   16 1
    22   27   16 2
    23   27    8 1
    24   16    9 1
    25    8   26 2
    26    9   17 1
    27    9   15 2
    28   26   15 1
    29   17   18 2
    30   15   28 1
    31   30   23 1
    32   30   19 1
    33   23   24 1
    34   28   21 1
    35   18   19 1
    36   18   20 1
    37   32   38 2
    38   19   31 2
    39   24   38 1
    40   21   20 1
    41   38   33 2
    42   38   22 1
