W32
     RDKit          3D

 39 42  0  0  0  0  0  0  0  0999 V2000
   -6.4460   -3.0820    1.4180 C   0  0  0  0  0  0  0  0  0  0  0  0
   -7.4150   -3.0140    0.4340 C   0  0  0  0  0  0  0  0  0  0  0  0
   -2.1570   -0.4400   -0.3090 C   0  0  0  0  0  0  0  0  0  0  0  0
   -5.7210   -1.9550    1.7530 C   0  0  0  0  0  0  0  0  0  0  0  0
   -3.4610   -0.5260    0.1350 C   0  0  0  0  0  0  0  0  0  0  0  0
   -6.9380   -0.6900    0.1140 C   0  0  0  0  0  0  0  0  0  0  0  0
   -1.8630    1.5900    0.9460 C   0  0  0  0  0  0  0  0  0  0  0  0
    0.3580    4.2310   -0.7410 C   0  0  0  0  0  0  0  0  0  0  0  0
    1.9050    2.0480   -0.9140 C   0  0  0  0  0  0  0  0  0  0  0  0
   -7.6600   -1.8190   -0.2180 C   0  0  0  0  0  0  0  0  0  0  0  0
   -1.3530    0.6170    0.0970 C   0  0  0  0  0  0  0  0  0  0  0  0
   -5.9650   -0.7550    1.1020 C   0  0  0  0  0  0  0  0  0  0  0  0
   -3.9700    0.4430    0.9880 C   0  0  0  0  0  0  0  0  0  0  0  0
   -3.1670    1.5000    1.3950 C   0  0  0  0  0  0  0  0  0  0  0  0
    2.4420    3.3360   -1.1130 C   0  0  0  0  0  0  0  0  0  0  0  0
    0.5440    1.9340   -0.5840 C   0  0  0  0  0  0  0  0  0  0  0  0
    2.7700    0.8830   -1.0620 C   0  0  0  0  0  0  0  0  0  0  0  0
    3.9770    0.8470   -0.4340 C   0  0  0  0  0  0  0  0  0  0  0  0
    4.8530   -0.2470   -0.6390 C   0  0  0  0  0  0  0  0  0  0  0  0
    4.3770    1.9750    0.4810 C   0  0  0  0  0  0  0  0  0  0  0  0
    4.7550    3.2190   -0.3190 C   0  0  0  0  0  0  0  0  0  0  0  0
   10.7660   -2.1530    1.3690 C   0  0  0  0  0  0  0  0  0  0  0  0
    6.9540   -1.4120   -0.2280 C   0  0  0  0  0  0  0  0  0  0  0  0
    8.2300   -1.2040    0.5900 C   0  0  0  0  0  0  0  0  0  0  0  0
   -8.7170   -1.7490   -1.2900 C   0  0  0  0  0  0  0  0  0  0  0  0
    1.6370    4.3870   -1.0280 N   0  0  0  0  0  0  0  0  0  0  0  0
   -0.1830    3.0500   -0.5180 N   0  0  0  0  0  0  0  0  0  0  0  0
    3.7880    3.4660   -1.3850 N   0  0  0  0  0  0  0  0  0  0  0  0
   -0.0290    0.7010   -0.3490 N   0  0  0  0  0  0  0  0  0  0  0  0
    6.0470   -0.2800   -0.0160 N   0  0  0  0  0  0  0  0  0  0  0  0
    4.5270   -1.1580   -1.3800 O   0  0  0  0  0  0  0  0  0  0  0  0
    9.7710   -2.6000   -1.0310 O   0  0  0  0  0  0  0  0  0  0  0  0
    8.7490   -3.7740    0.8630 O   0  0  0  0  0  0  0  0  0  0  0  0
   -5.2530    0.3540    1.4300 O   0  0  0  0  0  0  0  0  0  0  0  0
   -8.1300   -1.3560   -2.4980 F   0  0  0  0  0  0  0  0  0  0  0  0
   -9.3070   -3.0080   -1.4460 F   0  0  0  0  0  0  0  0  0  0  0  0
   -9.6940   -0.8180   -0.9220 F   0  0  0  0  0  0  0  0  0  0  0  0
    9.3520   -2.6040    0.3260 S   0  0  0  0  0  0  0  0  0  0  0  0
   -3.8030    2.7130    2.4620 Cl  0  0  0  0  0  0  0  0  0  0  0  0
  1  2  1  0
  1  4  2  0
  2 10  2  0
  3 11  1  0
  4 12  1  0
  5  3  2  0
  7 11  2  0
  8 26  2  0
  9 17  1  0
  9 15  2  0
 10 25  1  0
 10  6  1  0
 11 29  1  0
 12  6  2  0
 12 34  1  0
 13 14  2  0
 13  5  1  0
 14  7  1  0
 15 28  1  0
 16  9  1  0
 17 18  2  0
 18 19  1  0
 18 20  1  0
 19 31  2  0
 21 20  1  0
 23 24  1  0
 24 38  1  0
 25 36  1  0
 25 35  1  0
 26 15  1  0
 27 16  2  0
 27  8  1  0
 28 21  1  0
 29 16  1  0
 30 23  1  0
 30 19  1  0
 32 38  2  0
 34 13  1  0
 37 25  1  0
 38 33  2  0
 38 22  1  0
 39 14  1  0
M  END
$$$$
